Network_08R-373/scenario_216/case.raw
0,100.0,33,0,1,60.0
GRID OPTIMIZATION COMPETITION
INPUT DATA FILES ARE RAW ROP INL CON
1,'A1',230.0,1,1,1,1,1.02278,33.4049,1.05,0.95,1.1,0.9
2,'A2',1.0,1,1,1,1,1.03667,42.9359,1.06544,0.95,1.1,0.9
3,'A3',115.0,1,1,1,1,1.0252,44.4209,1.05,0.95,1.1,0.9
4,'A4',115.0,1,1,1,1,1.019,42.996,1.05,0.95,1.1,0.9
5,'A5',115.0,1,1,1,1,1.03161,15.1107,1.05,0.95,1.1,0.9
6,'A6',230.0,1,1,1,1,1.01258,14.1682,1.05,0.95,1.1,0.9
7,'A7',115.0,1,1,1,1,1.02994,46.3737,1.05,0.95,1.1,0.9
8,'A8',115.0,1,1,1,1,1.02696,28.371,1.05,0.95,1.1,0.9
9,'A9',115.0,2,1,1,1,1.0,21.8778,1.05,0.95,1.1,0.9
10,'A10',115.0,1,1,1,1,1.02476,32.2777,1.05,0.95,1.1,0.9
11,'A11',115.0,1,1,1,1,1.02804,13.2364,1.05,0.95,1.1,0.9
12,'A12',230.0,1,1,1,1,1.01331,15.9691,1.05,0.95,1.1,0.9
13,'A13',230.0,1,1,1,1,1.01882,42.8318,1.05,0.95,1.1,0.9
14,'A14',345.0,1,1,1,1,1.03667,42.9359,1.06544,0.95,1.1,0.9
15,'A15',115.0,1,1,1,1,1.01895,42.9963,1.05,0.95,1.1,0.9
16,'A16',230.0,1,1,1,1,1.00409,13.4497,1.05,0.95,1.1,0.9
17,'A17',230.0,1,1,1,1,1.0074,23.6505,1.05,0.95,1.1,0.9
18,'A18',230.0,1,1,1,1,1.00904,18.1173,1.05,0.95,1.1,0.9
19,'A19',500.0,1,1,1,1,1.04947,42.9101,1.07859,0.95,1.1,0.9
20,'A20',1.0,1,1,1,1,1.03667,42.9359,1.06544,0.95,1.1,0.9
21,'A21',22.8,2,1,1,1,1.01679,47.2297,1.05,0.95,1.1,0.9
22,'A22',230.0,1,1,1,1,1.02222,21.7564,1.05,0.95,1.1,0.9
23,'A23',345.0,2,1,1,1,1.02574,13.3448,1.05,0.95,1.1,0.9
24,'A24',138.0,1,1,1,1,1.01955,44.4477,1.05,0.95,1.1,0.9
25,'A25',21.0,2,1,1,1,1.0,52.1888,1.05,0.95,1.1,0.9
26,'A26',230.0,1,1,1,1,1.0337,15.8237,1.05,0.95,1.1,0.9
27,'A27',115.0,2,1,1,1,1.0361,13.4535,1.05,0.95,1.1,0.9
28,'A28',115.0,1,1,1,1,1.03933,43.9828,1.06652,0.95,1.1,0.9
29,'A29',115.0,1,1,1,1,1.02474,32.2722,1.05,0.95,1.1,0.9
30,'A30',161.0,1,1,1,1,1.00287,14.0412,1.05,0.95,1.1,0.9
31,'A31',230.0,1,1,1,1,1.02276,33.7286,1.05,0.95,1.1,0.9
32,'A32',161.0,1,1,1,1,1.01362,11.1462,1.05,0.95,1.1,0.9
33,'A33',115.0,1,1,1,1,1.02984,44.7305,1.05,0.95,1.1,0.9
34,'A34',115.0,1,1,1,1,1.02738,31.0445,1.05,0.95,1.1,0.9
35,'A35',230.0,1,1,1,1,1.00949,15.7652,1.05,0.95,1.1,0.9
36,'A36',138.0,1,1,1,1,1.02173,44.4228,1.05,0.95,1.1,0.9
37,'A37',230.0,1,1,1,1,1.03057,45.9493,1.05,0.95,1.1,0.9
38,'A38',230.0,1,1,1,1,1.02419,45.8329,1.05,0.95,1.1,0.9
39,'A39',230.0,1,1,1,1,1.04058,42.9183,1.06945,0.95,1.1,0.9
40,'A40',230.0,1,1,1,1,1.01051,46.49,1.05,0.95,1.1,0.9
41,'A41',161.0,1,1,1,1,1.02336,23.0975,1.05,0.95,1.1,0.9
42,'A42',230.0,2,1,1,1,1.0108,14.4111,1.05,0.95,1.1,0.9
43,'A43',230.0,1,1,1,1,1.02299,33.666,1.05,0.95,1.1,0.9
44,'A44',115.0,1,1,1,1,1.02992,46.3739,1.05,0.95,1.1,0.9
45,'A45',230.0,1,1,1,1,1.03261,16.8114,1.05,0.95,1.1,0.9
46,'A46',1.0,2,1,1,1,1.0132,14.6526,1.05,0.95,1.1,0.9
47,'A47',115.0,1,1,1,1,1.03266,15.4821,1.05,0.95,1.1,0.9
48,'A48',230.0,1,1,1,1,1.02844,18.5329,1.05,0.95,1.1,0.9
49,'A49',115.0,1,1,1,1,1.02783,11.468,1.05,0.95,1.1,0.9
50,'A50',230.0,1,1,1,1,1.02411,20.6381,1.05,0.95,1.1,0.9
51,'A51',1.0,2,1,1,1,1.0218,11.3649,1.05,0.95,1.1,0.9
52,'A52',230.0,1,1,1,1,1.00823,19.3577,1.05,0.95,1.1,0.9
53,'A53',500.0,1,1,1,1,1.03667,42.9359,1.06544,0.95,1.1,0.9
54,'A54',230.0,1,1,1,1,1.01819,13.5527,1.05,0.95,1.1,0.9
55,'B55',25.0,2,1,2,1,1.03427,12.3167,1.05,0.95,1.1,0.9
56,'B56',115.0,1,1,2,1,1.0396,12.4893,1.05,0.95,1.1,0.9
57,'B57',12.0,1,1,2,1,1.02638,11.7646,1.05,0.95,1.1,0.9
58,'B58',115.0,1,1,2,1,1.03944,12.456,1.05,0.95,1.1,0.9
59,'B59',115.0,1,1,2,1,1.03661,11.7606,1.05,0.95,1.1,0.9
60,'B60',25.0,2,1,2,1,1.04,13.5617,1.05,0.95,1.1,0.9
61,'B61',22.0,1,1,2,1,1.03577,11.8249,1.05,0.95,1.1,0.9
62,'B62',115.0,1,1,2,1,1.03663,11.7648,1.05,0.95,1.1,0.9
63,'B63',115.0,1,1,2,1,1.04007,12.6361,1.05,0.95,1.1,0.9
64,'B64',115.0,1,1,2,1,1.03665,11.7646,1.05,0.95,1.1,0.9
65,'B65',25.0,1,1,2,1,1.03944,12.456,1.05,0.95,1.1,0.9
66,'B66',115.0,1,1,2,1,1.03483,11.8444,1.05,0.95,1.1,0.9
67,'B67',115.0,1,1,2,1,1.03841,12.3167,1.05,0.95,1.1,0.9
68,'B68',12.0,1,1,2,1,1.02638,11.7646,1.05,0.95,1.1,0.9
69,'B69',115.0,1,1,2,1,1.03609,11.8058,1.05,0.95,1.1,0.9
70,'B70',34.5,2,1,2,1,1.04,12.8256,1.05,0.95,1.1,0.9
71,'C71',1.0,1,1,3,1,1.01037,17.8159,1.05,0.95,1.1,0.9
72,'C72',345.0,1,1,3,1,1.02635,16.97,1.05,0.95,1.1,0.9
73,'C73',765.0,2,1,3,1,1.0,18.0689,1.05,0.95,1.1,0.9
74,'C74',138.0,1,1,3,1,1.02452,16.0884,1.05,0.95,1.1,0.9
75,'C75',345.0,3,1,3,1,1.04,35.2575,1.05,0.95,1.1,0.9
76,'C76',345.0,1,1,3,1,1.02593,24.0715,1.05,0.95,1.1,0.9
77,'C77',138.0,1,1,3,1,1.02282,19.5889,1.05,0.95,1.1,0.9
78,'C78',138.0,2,1,3,1,1.0085,20.9562,1.05,0.95,1.1,0.9
79,'C79',138.0,1,1,3,1,1.00784,6.9838,1.05,0.95,1.1,0.9
80,'C80',18.0,1,1,3,1,1.03345,17.6756,1.05,0.95,1.1,0.9
81,'C81',138.0,1,1,3,1,1.02515,15.3339,1.05,0.95,1.1,0.9
82,'C82',13.8,1,1,3,1,1.0375,23.7021,1.05,0.95,1.1,0.9
83,'C83',345.0,1,1,3,1,1.03345,17.6756,1.05,0.95,1.1,0.9
84,'C84',345.0,1,1,3,1,1.01505,17.1641,1.05,0.95,1.1,0.9
85,'C85',138.0,1,1,3,1,1.02576,16.4748,1.05,0.95,1.1,0.9
86,'C86',138.0,1,1,3,1,1.02012,14.7477,1.05,0.95,1.1,0.9
87,'C87',345.0,1,1,3,1,1.03663,31.617,1.05,0.95,1.1,0.9
88,'C88',345.0,1,1,3,1,1.03177,24.6993,1.05,0.95,1.1,0.9
89,'C89',345.0,1,1,3,1,1.03413,23.0349,1.05,0.95,1.1,0.9
90,'C90',138.0,1,1,3,1,1.01991,15.7963,1.05,0.95,1.1,0.9
91,'C91',138.0,1,1,3,1,1.02207,15.5627,1.05,0.95,1.1,0.9
92,'C92',138.0,1,1,3,1,1.01441,18.8714,1.05,0.95,1.1,0.9
93,'C93',345.0,1,1,3,1,1.02542,15.9555,1.05,0.95,1.1,0.9
94,'C94',138.0,1,1,3,1,1.02351,15.4374,1.05,0.95,1.1,0.9
95,'C95',345.0,1,1,3,1,1.0266,17.6102,1.05,0.95,1.1,0.9
96,'C96',138.0,2,1,3,1,1.0133,22.949,1.05,0.95,1.1,0.9
97,'C97',138.0,1,1,3,1,1.02307,17.0081,1.05,0.95,1.1,0.9
98,'C98',138.0,1,1,3,1,1.01853,19.8971,1.05,0.95,1.1,0.9
99,'C99',138.0,1,1,3,1,1.01315,21.9729,1.05,0.95,1.1,0.9
100,'C100',1.0,1,1,3,1,1.0106,17.8161,1.05,0.95,1.1,0.9
101,'C101',345.0,1,1,3,1,1.03429,23.7178,1.05,0.95,1.1,0.9
102,'C102',138.0,1,1,3,1,1.02601,2.7516,1.05,0.95,1.1,0.9
103,'C103',138.0,1,1,3,1,1.02576,15.8143,1.05,0.95,1.1,0.9
104,'C104',345.0,1,1,3,1,1.0366,17.6878,1.05,0.95,1.1,0.9
105,'C105',345.0,1,1,3,1,1.0375,23.7021,1.05,0.95,1.1,0.9
106,'C106',13.8,1,1,3,1,1.0375,23.7021,1.05,0.95,1.1,0.9
107,'C107',138.0,1,1,3,1,1.01575,22.1466,1.05,0.95,1.1,0.9
108,'C108',345.0,1,1,3,1,1.02952,17.6514,1.05,0.95,1.1,0.9
109,'C109',345.0,1,1,3,1,1.01224,17.1242,1.05,0.95,1.1,0.9
110,'C110',138.0,1,1,3,1,1.0142,18.9053,1.05,0.95,1.1,0.9
111,'C111',138.0,1,1,3,1,1.01018,6.3662,1.05,0.95,1.1,0.9
112,'C112',138.0,2,1,3,1,0.99399,15.8764,1.05,0.95,1.1,0.9
113,'C113',345.0,1,1,3,1,1.02183,13.9063,1.05,0.95,1.1,0.9
114,'C114',138.0,1,1,3,1,1.02693,17.7023,1.05,0.95,1.1,0.9
115,'C115',138.0,1,1,3,1,1.01881,14.8942,1.05,0.95,1.1,0.9
116,'C116',138.0,2,1,3,1,1.0259,0.8868,1.05,0.95,1.1,0.9
117,'C117',13.8,1,1,3,1,1.01597,14.7844,1.05,0.95,1.1,0.9
118,'C118',345.0,1,1,3,1,1.01068,17.5631,1.05,0.95,1.1,0.9
119,'C119',24.0,2,1,3,1,1.04094,21.8738,1.05,0.95,1.1,0.9
120,'C120',138.0,1,1,3,1,0.99762,13.0781,1.05,0.95,1.1,0.9
121,'C121',345.0,1,1,3,1,1.01066,17.5631,1.05,0.95,1.1,0.9
122,'C122',138.0,1,1,3,1,1.02384,19.56,1.05,0.95,1.1,0.9
123,'C123',138.0,1,1,3,1,1.01642,17.6351,1.05,0.95,1.1,0.9
124,'C124',138.0,1,1,3,1,1.00786,7.0033,1.05,0.95,1.1,0.9
125,'C125',18.0,1,1,3,1,1.03345,17.6756,1.05,0.95,1.1,0.9
126,'C126',18.0,1,1,3,1,1.03345,17.6756,1.05,0.95,1.1,0.9
127,'C127',345.0,1,1,3,1,1.02671,16.4902,1.05,0.95,1.1,0.9
128,'C128',138.0,1,1,3,1,1.01669,22.2124,1.05,0.95,1.1,0.9
129,'C129',24.0,2,1,3,1,1.0239,24.6553,1.05,0.95,1.1,0.9
130,'C130',138.0,1,1,3,1,1.02219,16.4736,1.05,0.95,1.1,0.9
131,'C131',138.0,1,1,3,1,1.01892,18.0017,1.05,0.95,1.1,0.9
132,'C132',138.0,1,1,3,1,1.02123,15.9824,1.05,0.95,1.1,0.9
133,'C133',138.0,1,1,3,1,1.01671,17.4859,1.05,0.95,1.1,0.9
134,'C134',138.0,1,1,3,1,1.01481,21.4719,1.05,0.95,1.1,0.9
135,'C135',345.0,1,1,3,1,1.031,21.8659,1.05,0.95,1.1,0.9
136,'C136',138.0,1,1,3,1,1.01975,20.3732,1.05,0.95,1.1,0.9
137,'C137',345.0,1,1,3,1,1.02573,18.5525,1.05,0.95,1.1,0.9
138,'C138',138.0,1,1,3,1,1.01659,7.4536,1.05,0.95,1.1,0.9
139,'C139',138.0,1,1,3,1,1.02156,15.3215,1.05,0.95,1.1,0.9
140,'C140',13.8,1,1,3,1,1.01597,14.7841,1.05,0.95,1.1,0.9
141,'C141',345.0,2,1,3,1,1.0393,17.7146,1.05,0.95,1.1,0.9
142,'C142',345.0,1,1,3,1,1.01069,17.5378,1.05,0.95,1.1,0.9
143,'C143',345.0,1,1,3,1,1.03023,26.9554,1.05,0.95,1.1,0.9
144,'C144',138.0,1,1,3,1,1.01401,18.8414,1.05,0.95,1.1,0.9
145,'C145',138.0,1,1,3,1,1.01683,17.1102,1.05,0.95,1.1,0.9
146,'C146',138.0,1,1,3,1,1.02879,20.2425,1.05,0.95,1.1,0.9
147,'C147',138.0,2,1,3,1,1.0247,15.0029,1.05,0.95,1.1,0.9
148,'C148',138.0,1,1,3,1,1.0197,14.7134,1.05,0.95,1.1,0.9
149,'C149',138.0,1,1,3,1,1.01628,19.4973,1.05,0.95,1.1,0.9
150,'C150',138.0,1,1,3,1,1.02422,16.2838,1.05,0.95,1.1,0.9
151,'D151',230.0,2,1,4,1,1.01084,6.4068,1.05,0.95,1.1,0.9
152,'D152',25.0,2,1,4,1,1.04,15.7847,1.05,0.95,1.1,0.9
153,'D153',115.0,1,1,4,1,1.02233,8.6551,1.05,0.95,1.1,0.9
154,'D154',46.0,2,1,4,1,1.01,5.7703,1.05,0.95,1.1,0.9
155,'D155',115.0,1,1,4,1,1.00803,1.6467,1.05,0.95,1.1,0.9
156,'D156',115.0,1,1,4,1,1.01381,5.2862,1.05,0.95,1.1,0.9
157,'D157',46.0,1,1,4,1,1.01397,5.1848,1.05,0.95,1.1,0.9
158,'D158',115.0,1,1,4,1,1.01252,5.4462,1.05,0.95,1.1,0.9
159,'D159',46.0,1,1,4,1,0.99304,2.9682,1.05,0.95,1.1,0.9
160,'D160',230.0,2,1,4,1,1.01059,10.9616,1.05,0.95,1.1,0.9
161,'D161',46.0,1,1,4,1,0.99525,2.9331,1.05,0.95,1.1,0.9
162,'D162',115.0,1,1,4,1,1.01912,7.7493,1.05,0.95,1.1,0.9
163,'D163',13.8,2,1,4,1,1.01258,5.0309,1.05,0.95,1.1,0.9
164,'D164',115.0,1,1,4,1,1.0168,6.5912,1.05,0.95,1.1,0.9
165,'D165',115.0,1,1,4,1,1.01629,6.1569,1.05,0.95,1.1,0.9
166,'D166',115.0,1,1,4,1,1.02242,8.1659,1.05,0.95,1.1,0.9
167,'D167',230.0,1,1,4,1,1.00996,8.5446,1.05,0.95,1.1,0.9
168,'D168',115.0,1,1,4,1,1.01488,6.9118,1.05,0.95,1.1,0.9
169,'D169',115.0,1,1,4,1,1.02252,8.268,1.05,0.95,1.1,0.9
170,'D170',115.0,1,1,4,1,1.01381,5.8805,1.05,0.95,1.1,0.9
171,'D171',230.0,1,1,4,1,1.01913,9.3916,1.05,0.95,1.1,0.9
172,'D172',115.0,1,1,4,1,1.01252,-0.9634,1.05,0.95,1.1,0.9
173,'D173',46.0,1,1,4,1,1.00105,3.6982,1.05,0.95,1.1,0.9
174,'D174',115.0,1,1,4,1,1.02336,8.2024,1.05,0.95,1.1,0.9
175,'D175',115.0,1,1,4,1,1.02696,5.3397,1.05,0.95,1.1,0.9
176,'D176',115.0,1,1,4,1,1.01693,6.6292,1.05,0.95,1.1,0.9
177,'D177',230.0,1,1,4,1,1.01201,5.8775,1.05,0.95,1.1,0.9
178,'D178',34.5,2,1,4,1,1.01272,6.408,1.05,0.95,1.1,0.9
179,'D179',13.8,2,1,4,1,1.01381,5.2862,1.05,0.95,1.1,0.9
180,'D180',115.0,1,1,4,1,1.02103,-2.9032,1.05,0.95,1.1,0.9
181,'D181',46.0,1,1,4,1,1.02564,4.8842,1.05,0.95,1.1,0.9
182,'D182',34.5,2,1,4,1,1.01252,5.4462,1.05,0.95,1.1,0.9
183,'D183',115.0,1,1,4,1,1.02258,8.2365,1.05,0.95,1.1,0.9
184,'D184',46.0,1,1,4,1,1.001,2.0258,1.05,0.95,1.1,0.9
185,'D185',115.0,1,1,4,1,1.01827,7.6239,1.05,0.95,1.1,0.9
186,'D186',230.0,1,1,4,1,1.01145,7.701,1.05,0.95,1.1,0.9
187,'D187',115.0,1,1,4,1,1.0056,3.1467,1.05,0.95,1.1,0.9
188,'D188',115.0,1,1,4,1,1.02228,8.3034,1.05,0.95,1.1,0.9
189,'D189',230.0,1,1,4,1,1.01138,9.3279,1.05,0.95,1.1,0.9
190,'D190',46.0,1,1,4,1,1.00655,3.4431,1.05,0.95,1.1,0.9
191,'D191',22.0,1,1,4,1,1.03527,11.6949,1.05,0.95,1.1,0.9
192,'D192',34.5,2,1,4,1,1.01038,1.796,1.05,0.95,1.1,0.9
193,'D193',115.0,1,1,4,1,1.02681,4.2046,1.05,0.95,1.1,0.9
194,'D194',46.0,1,1,4,1,1.00641,4.7207,1.05,0.95,1.1,0.9
195,'D195',46.0,1,1,4,1,1.00646,3.0639,1.05,0.95,1.1,0.9
196,'D196',34.5,2,1,4,1,1.01252,5.4462,1.05,0.95,1.1,0.9
197,'D197',46.0,1,1,4,1,1.0012,3.0155,1.05,0.95,1.1,0.9
198,'D198',115.0,1,1,4,1,1.01553,6.4137,1.05,0.95,1.1,0.9
199,'D199',34.5,2,1,4,1,1.01145,7.701,1.05,0.95,1.1,0.9
200,'D200',46.0,1,1,4,1,1.00865,-2.1323,1.05,0.95,1.1,0.9
...
0 / END OF BUS DATA BEGIN LOAD DATA
4,'1',1,1,1,-58.515,13.968,0.0,0.0,0.0,0.0,1,1,0
5,'1',1,1,1,75.391,-17.901,0.0,0.0,0.0,0.0,1,1,0
7,'1',1,1,1,-98.023,-0.506,0.0,0.0,0.0,0.0,1,1,0
9,'1',1,1,1,67.259,-28.374,0.0,0.0,0.0,0.0,1,1,0
11,'1',1,1,1,28.22,3.693,0.0,0.0,0.0,0.0,1,1,0
12,'99',0,1,1,22.891,2.788,0.0,0.0,0.0,0.0,1,1,0
14,'99',0,1,1,259.475,-10.863,0.0,0.0,0.0,0.0,1,1,0
15,'1',1,1,1,-58.527,13.968,0.0,0.0,0.0,0.0,1,1,0
16,'1',1,1,1,36.964,10.547,0.0,0.0,0.0,0.0,1,1,0
16,'2',1,1,1,41.533,0.475,0.0,0.0,0.0,0.0,1,1,0
16,'99',0,1,1,6.157,-17.663,0.0,0.0,0.0,0.0,1,1,0
17,'1',1,1,1,17.803,4.835,0.0,0.0,0.0,0.0,1,1,0
18,'1',1,1,1,25.416,1.908,0.0,0.0,0.0,0.0,1,1,0
21,'1',1,1,1,-58.984,18.266,0.0,0.0,0.0,0.0,1,1,0
25,'1',1,1,1,-66.369,14.629,0.0,0.0,0.0,0.0,1,1,0
26,'1',1,1,1,67.098,-13.69,0.0,0.0,0.0,0.0,1,1,0
27,'1',1,1,1,93.397,-25.787,0.0,0.0,0.0,0.0,1,1,0
28,'1',1,1,1,-133.801,-4.428,0.0,0.0,0.0,0.0,1,1,0
30,'1',1,1,1,54.316,16.444,0.0,0.0,0.0,0.0,1,1,0
32,'1',1,1,1,41.904,10.85,0.0,0.0,0.0,0.0,1,1,0
32,'99',0,1,1,19.614,-35.517,0.0,0.0,0.0,0.0,1,1,0
33,'1',1,1,1,-30.338,17.525,0.0,0.0,0.0,0.0,1,1,0
34,'1',1,1,1,64.684,51.66,0.0,0.0,0.0,0.0,1,1,0
35,'1',1,1,1,19.05,3.409,0.0,0.0,0.0,0.0,1,1,0
42,'1',1,1,1,22.533,3.754,0.0,0.0,0.0,0.0,1,1,0
44,'1',1,1,1,-98.016,-0.852,0.0,0.0,0.0,0.0,1,1,0
47,'1',1,1,1,94.466,-22.23,0.0,0.0,0.0,0.0,1,1,0
49,'1',1,1,1,20.822,2.631,0.0,0.0,0.0,0.0,1,1,0
50,'1',1,1,1,14.82,-3.365,0.0,0.0,0.0,0.0,1,1,0
52,'1',1,1,1,14.4,1.686,0.0,0.0,0.0,0.0,1,1,0
54,'1',1,1,1,49.598,2.093,0.0,0.0,0.0,0.0,1,1,0
54,'2',1,1,1,77.237,5.86,0.0,0.0,0.0,0.0,1,1,0
59,'99',1,1,2,7.041,-5.997,0.0,0.0,0.0,0.0,1,1,0
61,'1',1,1,2,-0.321,0.364,0.0,0.0,0.0,0.0,1,1,0
63,'1',1,1,2,6.274,-0.346,0.0,0.0,0.0,0.0,1,1,0
66,'1',1,1,2,2.507,-3.903,0.0,0.0,0.0,0.0,1,1,0
74,'1',1,1,3,43.787,20.032,0.0,0.0,0.0,0.0,1,1,0
75,'99',1,1,3,18.36,-9.529,0.0,0.0,0.0,0.0,1,1,0
77,'1',1,1,3,3.365,0.932,0.0,0.0,0.0,0.0,1,1,0
78,'1',1,1,3,6.916,-0.401,0.0,0.0,0.0,0.0,1,1,0
79,'1',1,1,3,34.636,-0.914,0.0,0.0,0.0,0.0,1,1,0
81,'1',1,1,3,13.202,2.976,0.0,0.0,0.0,0.0,1,1,0
83,'1',1,1,3,-4.02,4.026,0.0,0.0,0.0,0.0,1,1,0
85,'1',1,1,3,7.83,0.525,0.0,0.0,0.0,0.0,1,1,0
85,'2',1,1,3,10.603,1.142,0.0,0.0,0.0,0.0,1,1,0
86,'1',1,1,3,29.183,3.52,0.0,0.0,0.0,0.0,1,1,0
87,'99',1,1,3,293.732,4.735,0.0,0.0,0.0,0.0,1,1,0
88,'99',1,1,3,32.764,8.53,0.0,0.0,0.0,0.0,1,1,0
89,'99',1,1,3,117.179,1.357,0.0,0.0,0.0,0.0,1,1,0
90,'1',1,1,3,21.434,5.897,0.0,0.0,0.0,0.0,1,1,0
91,'1',1,1,3,6.224,1.482,0.0,0.0,0.0,0.0,1,1,0
92,'1',1,1,3,11.239,5.051,0.0,0.0,0.0,0.0,1,1,0
92,'2',1,1,3,11.239,5.051,0.0,0.0,0.0,0.0,1,1,0
92,'99',1,1,3,1.698,-13.023,0.0,0.0,0.0,0.0,1,1,0
93,'99',1,1,3,84.573,-14.356,0.0,0.0,0.0,0.0,1,1,0
94,'1',1,1,3,12.733,2.581,0.0,0.0,0.0,0.0,1,1,0
96,'1',1,1,3,9.954,2.112,0.0,0.0,0.0,0.0,1,1,0
97,'99',1,1,3,94.691,-19.193,0.0,0.0,0.0,0.0,1,1,0
98,'1',1,1,3,17.358,6.434,0.0,0.0,0.0,0.0,1,1,0
99,'1',1,1,3,24.929,8.596,0.0,0.0,0.0,0.0,1,1,0
99,'99',0,1,3,6.589,-2.898,0.0,0.0,0.0,0.0,1,1,0
103,'1',1,1,3,19.55,-16.401,0.0,0.0,0.0,0.0,1,1,0
107,'1',1,1,3,2.785,1.488,0.0,0.0,0.0,0.0,1,1,0
109,'99',1,1,3,54.55,-5.658,0.0,0.0,0.0,0.0,1,1,0
112,'1',1,1,3,14.518,18.476,0.0,0.0,0.0,0.0,1,1,0
113,'99',1,1,3,421.418,-64.183,0.0,0.0,0.0,0.0,1,1,0
114,'99',1,1,3,47.118,-11.31,0.0,0.0,0.0,0.0,1,1,0
115,'1',1,1,3,20.229,8.732,0.0,0.0,0.0,0.0,1,1,0
116,'1',1,1,3,17.809,0.988,0.0,0.0,0.0,0.0,1,1,0
117,'1',1,1,3,9.689,-2.001,0.0,0.0,0.0,0.0,1,1,0
119,'1',1,1,3,-1.062,3.822,0.0,0.0,0.0,0.0,1,1,0
122,'1',1,1,3,1.859,-6.336,0.0,0.0,0.0,0.0,1,1,0
123,'1',1,1,3,22.063,1.149,0.0,0.0,0.0,0.0,1,1,0
128,'1',1,1,3,22.483,3.699,0.0,0.0,0.0,0.0,1,1,0
128,'2',1,1,3,-1.402,2.322,0.0,0.0,0.0,0.0,1,1,0
129,'1',1,1,3,-1.068,3.742,0.0,0.0,0.0,0.0,1,1,0
130,'1',1,1,3,-28.671,2.921,0.0,0.0,0.0,0.0,1,1,0
131,'1',1,1,3,2.402,0.741,0.0,0.0,0.0,0.0,1,1,0
132,'1',1,1,3,75.595,9.664,0.0,0.0,0.0,0.0,1,1,0
133,'1',1,1,3,27.504,11.486,0.0,0.0,0.0,0.0,1,1,0
134,'1',1,1,3,14.518,8.651,0.0,0.0,0.0,0.0,1,1,0
136,'99',1,1,3,1.928,-7.145,0.0,0.0,0.0,0.0,1,1,0
138,'1',1,1,3,19.439,2.26,0.0,0.0,0.0,0.0,1,1,0
139,'1',1,1,3,-3.131,0.074,0.0,0.0,0.0,0.0,1,1,0
140,'1',1,1,3,9.695,-2.001,0.0,0.0,0.0,0.0,1,1,0
144,'1',1,1,3,7.781,0.488,0.0,0.0,0.0,0.0,1,1,0
145,'1',1,1,3,21.569,6.465,0.0,0.0,0.0,0.0,1,1,0
146,'1',1,1,3,1.031,2.476,0.0,0.0,0.0,0.0,1,1,0
146,'2',1,1,3,2.661,3.742,0.0,0.0,0.0,0.0,1,1,0
147,'1',1,1,3,11.381,2.649,0.0,0.0,0.0,0.0,1,1,0
148,'1',1,1,3,18.704,9.448,0.0,0.0,0.0,0.0,1,1,0
149,'1',1,1,3,11.516,7.256,0.0,0.0,0.0,0.0,1,1,0
149,'2',1,1,3,11.967,5.706,0.0,0.0,0.0,0.0,1,1,0
150,'1',1,1,3,0.642,1.957,0.0,0.0,0.0,0.0,1,1,0
153,'1',1,1,4,9.818,3.909,0.0,0.0,0.0,0.0,1,1,0
153,'2',1,1,4,9.065,-0.611,0.0,0.0,0.0,0.0,1,1,0
154,'1',1,1,4,24.046,-0.475,0.0,0.0,0.0,0.0,1,1,0
156,'1',1,1,4,6.002,0.871,0.0,0.0,0.0,0.0,1,1,0
159,'1',1,1,4,4.749,1.068,0.0,0.0,0.0,0.0,1,1,0
160,'99',0,1,4,131.274,-62.291,0.0,0.0,0.0,0.0,1,1,0
161,'1',1,1,4,11.022,4.045,0.0,0.0,0.0,0.0,1,1,0
162,'1',1,1,4,2.828,0.679,0.0,0.0,0.0,0.0,1,1,0
162,'2',1,1,4,5.422,0.969,0.0,0.0,0.0,0.0,1,1,0
162,'3',1,1,4,5.551,1.525,0.0,0.0,0.0,0.0,1,1,0
163,'1',1,1,4,3.927,0.71,0.0,0.0,0.0,0.0,1,1,0
164,'1',1,1,4,5.273,-0.797,0.0,0.0,0.0,0.0,1,1,0
165,'1',1,1,4,8.238,0.303,0.0,0.0,0.0,0.0,1,1,0
165,'2',1,1,4,12.486,1.389,0.0,0.0,0.0,0.0,1,1,0
166,'1',1,1,4,4.767,-0.377,0.0,0.0,0.0,0.0,1,1,0
166,'2',1,1,4,4.143,0.5,0.0,0.0,0.0,0.0,1,1,0
168,'1',1,1,4,1.476,0.587,0.0,0.0,0.0,0.0,1,1,0
168,'2',1,1,4,2.89,-1.624,0.0,0.0,0.0,0.0,1,1,0
170,'1',1,1,4,5.947,0.587,0.0,0.0,0.0,0.0,1,1,0
173,'1',1,1,4,14.45,0.5,0.0,0.0,0.0,0.0,1,1,0
174,'1',1,1,4,-0.253,-0.852,0.0,0.0,0.0,0.0,1,1,0
176,'1',1,1,4,7.997,-2.686,0.0,0.0,0.0,0.0,1,1,0
176,'2',1,1,4,7.676,-0.846,0.0,0.0,0.0,0.0,1,1,0
177,'99',1,1,4,95.705,-19.986,0.0,0.0,0.0,0.0,1,1,0
180,'1',1,1,4,8.034,-0.778,0.0,0.0,0.0,0.0,1,1,0
180,'2',1,1,4,8.447,1.149,0.0,0.0,0.0,0.0,1,1,0
180,'99',1,1,4,15.557,-14.818,0.0,0.0,0.0,0.0,1,1,0
181,'1',1,1,4,5.385,-0.432,0.0,0.0,0.0,0.0,1,1,0
183,'1',1,1,4,3.742,-0.957,0.0,0.0,0.0,0.0,1,1,0
184,'1',1,1,4,7.28,1.439,0.0,0.0,0.0,0.0,1,1,0
187,'1',1,1,4,4.008,-0.951,0.0,0.0,0.0,0.0,1,1,0
188,'1',1,1,4,1.896,-1.396,0.0,0.0,0.0,0.0,1,1,0
188,'2',1,1,4,1.624,-1.377,0.0,0.0,0.0,0.0,1,1,0
190,'1',1,1,4,5.156,0.29,0.0,0.0,0.0,0.0,1,1,0
191,'1',1,1,4,-0.321,0.364,0.0,0.0,0.0,0.0,1,1,0
193,'1',1,1,4,0.093,0.599,0.0,0.0,0.0,0.0,1,1,0
193,'99',1,1,4,58.515,-9.692,0.0,0.0,0.0,0.0,1,1,0
195,'1',1,1,4,5.323,-1.562,0.0,0.0,0.0,0.0,1,1,0
200,'1',1,1,4,7.299,-0.389,0.0,0.0,0.0,0.0,1,1,0
201,'1',1,1,4,4.446,1.525,0.0,0.0,0.0,0.0,1,1,0
203,'1',1,1,4,-0.58,-9.281,0.0,0.0,0.0,0.0,1,1,0
203,'2',1,1,4,2.408,-7.28,0.0,0.0,0.0,0.0,1,1,0
204,'99',0,1,4,67.773,-34.499,0.0,0.0,0.0,0.0,1,1,0
206,'1',1,1,4,-1.13,-0.253,0.0,0.0,0.0,0.0,1,1,0
207,'1',1,1,4,-0.204,3.026,0.0,0.0,0.0,0.0,1,1,0
208,'1',1,1,4,9.071,0.049,0.0,0.0,0.0,0.0,1,1,0
214,'1',1,1,4,8.559,-0.216,0.0,0.0,0.0,0.0,1,1,0
214,'2',1,1,4,8.559,-0.216,0.0,0.0,0.0,0.0,1,1,0
215,'1',1,1,4,2.748,1.686,0.0,0.0,0.0,0.0,1,1,0
216,'1',1,1,4,9.188,1.531,0.0,0.0,0.0,0.0,1,1,0
216,'2',1,1,4,8.268,0.482,0.0,0.0,0.0,0.0,1,1,0
217,'1',1,1,4,14.925,8.571,0.0,0.0,0.0,0.0,1,1,0
218,'1',1,1,4,12.313,0.716,0.0,0.0,0.0,0.0,1,1,0
219,'1',1,1,4,5.78,3.396,0.0,0.0,0.0,0.0,1,1,0
220,'1',1,1,4,3.668,0.741,0.0,0.0,0.0,0.0,1,1,0
221,'1',1,1,4,10.51,1.976,0.0,0.0,0.0,0.0,1,1,0
221,'2',1,1,4,12.183,1.13,0.0,0.0,0.0,0.0,1,1,0
222,'1',1,1,4,2.507,-3.903,0.0,0.0,0.0,0.0,1,1,0
223,'1',1,1,4,4.23,0.13,0.0,0.0,0.0,0.0,1,1,0
226,'99',1,1,4,36.856,-7.041,0.0,0.0,0.0,0.0,1,1,0
227,'1',1,1,4,-1.167,0.278,0.0,0.0,0.0,0.0,1,1,0
228,'1',1,1,4,10.059,3.532,0.0,0.0,0.0,0.0,1,1,0
229,'1',1,1,4,6.15,0.358,0.0,0.0,0.0,0.0,1,1,0
229,'2',1,1,4,9.164,1.223,0.0,0.0,0.0,0.0,1,1,0
231,'1',1,1,4,1.877,-1.507,0.0,0.0,0.0,0.0,1,1,0
233,'1',1,1,4,7.268,-0.117,0.0,0.0,0.0,0.0,1,1,0
235,'1',1,1,4,3.934,-0.352,0.0,0.0,0.0,0.0,1,1,0
236,'1',1,1,4,6.002,-0.513,0.0,0.0,0.0,0.0,1,1,0
239,'1',1,1,4,1.044,5.094,0.0,0.0,0.0,0.0,1,1,0
241,'99',1,1,4,13.494,-6.379,0.0,0.0,0.0,0.0,1,1,0
244,'1',1,1,4,13.443,0.124,0.0,0.0,0.0,0.0,1,1,0
246,'1',1,1,4,5.539,1.55,0.0,0.0,0.0,0.0,1,1,0
248,'1',1,1,4,6.669,1.575,0.0,0.0,0.0,0.0,1,1,0
249,'1',1,1,4,6.941,0.834,0.0,0.0,0.0,0.0,1,1,0
253,'1',1,1,5,23.471,4.415,0.0,0.0,0.0,0.0,1,1,0
254,'1',1,1,5,10.88,-1.0,0.0,0.0,0.0,0.0,1,1,0
256,'1',1,1,5,14.585,0.655,0.0,0.0,0.0,0.0,1,1,0
256,'2',1,1,5,14.585,0.655,0.0,0.0,0.0,0.0,1,1,0
259,'1',1,1,5,8.38,0.383,0.0,0.0,0.0,0.0,1,1,0
264,'1',1,1,5,7.373,-0.834,0.0,0.0,0.0,0.0,1,1,0
264,'2',1,1,5,7.373,-0.834,0.0,0.0,0.0,0.0,1,1,0
264,'3',1,1,5,7.373,-0.834,0.0,0.0,0.0,0.0,1,1,0
267,'1',1,1,5,12.375,0.216,0.0,0.0,0.0,0.0,1,1,0
267,'2',1,1,5,12.06,1.846,0.0,0.0,0.0,0.0,1,1,0
269,'1',1,1,5,40.829,6.175,0.0,0.0,0.0,0.0,1,1,0
273,'1',1,1,5,17.259,5.409,0.0,0.0,0.0,0.0,1,1,0
283,'1',1,1,5,10.763,0.852,0.0,0.0,0.0,0.0,1,1,0
284,'1',1,1,5,11.479,0.451,0.0,0.0,0.0,0.0,1,1,0
284,'2',1,1,5,11.479,0.451,0.0,0.0,0.0,0.0,1,1,0
284,'3',1,1,5,11.479,0.451,0.0,0.0,0.0,0.0,1,1,0
284,'4',1,1,5,11.479,0.451,0.0,0.0,0.0,0.0,1,1,0
287,'1',1,1,5,10.961,7.527,0.0,0.0,0.0,0.0,1,1,0
287,'2',1,1,5,10.961,7.527,0.0,0.0,0.0,0.0,1,1,0
291,'1',1,1,5,9.034,1.414,0.0,0.0,0.0,0.0,1,1,0
292,'99',1,1,5,201.46,48.259,0.0,0.0,0.0,0.0,1,1,0
294,'1',1,1,5,14.647,0.525,0.0,0.0,0.0,0.0,1,1,0
294,'2',1,1,5,14.647,0.525,0.0,0.0,0.0,0.0,1,1,0
296,'1',1,1,5,20.458,11.177,0.0,0.0,0.0,0.0,1,1,0
298,'1',1,1,5,27.448,7.62,0.0,0.0,0.0,0.0,1,1,0
298,'2',1,1,5,27.448,7.62,0.0,0.0,0.0,0.0,1,1,0
303,'1',1,1,5,13.338,0.618,0.0,0.0,0.0,0.0,1,1,0
309,'1',1,1,5,1.272,-5.465,0.0,0.0,0.0,0.0,1,1,0
312,'1',1,1,5,5.002,1.655,0.0,0.0,0.0,0.0,1,1,0
313,'1',1,1,5,5.033,8.262,0.0,0.0,0.0,0.0,1,1,0
313,'2',1,1,5,31.74,17.253,0.0,0.0,0.0,0.0,1,1,0
316,'1',1,1,5,12.795,-1.42,0.0,0.0,0.0,0.0,1,1,0
...
0 / END OF LOAD DATA BEGIN FIXED SHUNT DATA
12,'99',1,0.0,2.664
16,'99',1,0.0,-17.445
23,'99',1,0.0,10.787
32,'99',1,0.0,-34.159
66,'99',1,0.0,-15.861
99,'99',1,0.0,-2.847
110,'99',1,0.0,7.776
116,'99',1,0.0,51.25
131,'99',1,0.0,7.254
160,'99',1,0.0,-59.884
204,'99',1,0.0,-32.353
223,'99',1,0.0,12.54
225,'99',1,0.0,3.413
294,'99',1,0.0,-4.561
300,'99',1,0.0,-22.762
315,'99',1,0.0,20.519
319,'99',1,0.0,-24.136
331,'99',1,0.0,-40.033
373,'99',1,0.0,-42.075
380,'99',1,0.0,-7.745
413,'99',1,0.0,26.063
415,'99',1,0.0,18.111
417,'99',1,0.0,12.322
463,'99',1,0.0,5.565
469,'99',1,0.0,8.481
477,'99',1,0.0,4.788
490,'99',1,0.0,40.614
493,'99',1,0.0,-15.605
505,'99',1,0.0,11.031
511,'99',1,0.0,7.141
526,'99',1,0.0,58.406
536,'99',1,0.0,10.172
559,'99',1,0.0,-7.526
660,'99',1,0.0,131.363
666,'99',1,0.0,-1.426
678,'99',1,0.0,46.173
910,'99',1,0.0,-17.163
949,'99',1,0.0,-57.137
975,'99',1,0.0,-22.802
1026,'99',1,0.0,52.62
1065,'99',1,0.0,-17.869
1186,'99',1,0.0,-13.527
1206,'99',1,0.0,-21.227
1212,'99',1,0.0,7.441
1214,'99',1,0.0,-10.675
1261,'99',1,0.0,-26.327
1268,'99',1,0.0,-13.078
1326,'99',1,0.0,0.447
1366,'99',1,0.0,30.53
1367,'99',1,0.0,-85.711
1389,'99',1,0.0,21.371
1405,'99',1,0.0,-5.636
1469,'99',1,0.0,4.576
1472,'99',1,0.0,68.875
1490,'99',1,0.0,-11.341
1523,'99',1,0.0,-0.597
1596,'99',1,0.0,-2.77
1608,'99',1,0.0,107.695
1666,'99',1,0.0,35.076
1713,'99',1,0.0,44.457
1715,'99',1,0.0,28.052
1754,'99',1,0.0,9.137
1769,'99',1,0.0,137.513
1772,'99',1,0.0,18.26
1871,'99',1,0.0,109.182
1874,'99',1,0.0,17.981
1881,'99',1,0.0,-1.066
1899,'99',1,0.0,-55.276
1966,'99',1,0.0,10.11
1983,'99',1,0.0,89.017
1991,'99',1,0.0,-6.216
1992,'99',1,0.0,-63.017
1994,'99',1,0.0,125.504
2163,'99',1,0.0,-24.38
2185,'99',1,0.0,41.553
2192,'99',1,0.0,-22.419
2199,'99',1,0.0,-43.771
2208,'99',1,0.0,5.411
2230,'99',1,0.0,1.625
2242,'99',1,0.0,45.209
2252,'99',1,0.0,20.955
2303,'99',1,0.0,-1.985
2324,'99',1,0.0,-12.701
2375,'99',1,0.0,-0.797
2386,'99',1,0.0,2.301
2389,'99',1,0.0,18.865
2397,'99',1,0.0,-4.732
2429,'99',1,0.0,1.7
2436,'99',1,0.0,-2.858
2437,'99',1,0.0,-2.864
2439,'99',1,0.0,-3.769
2440,'99',1,0.0,-3.77
2443,'99',1,0.0,-21.078
2444,'99',1,0.0,-21.078
2445,'99',1,0.0,-39.396
2448,'99',1,0.0,25.649
2451,'99',1,0.0,-1.928
2452,'99',1,0.0,-1.942
2505,'99',1,0.0,1.655
2537,'99',1,0.0,5.439
2557,'99',1,0.0,-2.408
2568,'99',1,0.0,31.065
2585,'99',1,0.0,35.6
2612,'99',1,0.0,23.459
2633,'99',1,0.0,-0.849
2634,'99',1,0.0,4.733
2645,'99',1,0.0,-13.322
2664,'99',1,0.0,-0.759
2671,'99',1,0.0,0.624
2689,'99',1,0.0,3.275
2792,'99',1,0.0,12.308
2800,'99',1,0.0,-45.119
2813,'99',1,0.0,42.927
2814,'99',1,0.0,74.913
2826,'99',1,0.0,-128.245
2829,'99',1,0.0,-106.655
2836,'99',1,0.0,0.709
2840,'99',1,0.0,53.016
2841,'99',1,0.0,-1.039
2843,'99',1,0.0,10.356
2873,'99',1,0.0,0.713
2874,'99',1,0.0,-7.759
2921,'99',1,0.0,4.396
2922,'99',1,0.0,-46.019
2935,'99',1,0.0,-1.674
2955,'99',1,0.0,-1.64
2966,'99',1,0.0,5.996
2991,'99',1,0.0,-14.913
2995,'99',1,0.0,3.541
0 / END OF FIXED SHUNT DATA BEGIN GENERATOR DATA
9,'94',3.1,-30.842,500.0,-500.0,1.0,0,100.0,0.0,1.0,0.0,0.0,1.0,1,100.0,40.0,3.0,1,1.0,0,1.0,0,1.0,0,1.0,0,1.0
21,'1',0.0,0.0,532.035,-532.035,1.0,0,100.0,0.0,1.0,0.0,0.0,1.0,0,100.0,1764.706,88.235,1,1.0,0,1.0,0,1.0,0,1.0,0,1.0
23,'99',288.798,-33.333,33.333,-33.333,1.01092,0,100.0,0.0,1.0,0.0,0.0,1.0,1,100.0,357.409,17.87,1,1.0,0,1.0,0,1.0,0,1.0,0,1.0
25,'1',382.2,-50.49,400.0,-400.0,1.0,0,100.0,0.0,1.0,0.0,0.0,1.0,1,100.0,2076.125,103.806,1,1.0,0,1.0,0,1.0,0,1.0,0,1.0
27,'99',62.075,27.841,550.0,-550.0,1.0361,0,100.0,0.0,1.0,0.0,0.0,1.0,1,100.0,1500.0,28.457,1,1.0,0,1.0,0,1.0,0,1.0,0,1.0
42,'99',11.961,62.558,550.0,-550.0,1.0108,0,100.0,0.0,1.0,0.0,0.0,1.0,1,100.0,1500.0,11.961,1,1.0,0,1.0,0,1.0,0,1.0,0,1.0
46,'99',113.098,-56.675,550.0,-550.0,1.0132,0,100.0,0.0,1.0,0.0,0.0,1.0,1,100.0,1500.0,51.849,1,1.0,0,1.0,0,1.0,0,1.0,0,1.0
51,'99',17.983,27.075,550.0,-550.0,1.0218,0,100.0,0.0,1.0,0.0,0.0,1.0,1,100.0,1500.0,8.244,1,1.0,0,1.0,0,1.0,0,1.0,0,1.0
55,'1',0.0,0.0,131.303,-131.303,1.04,0,35.0,0.0,0.8,0.0,0.0,1.0,0,100.0,422.059,5.7,1,1.0,0,1.0,0,1.0,0,1.0,0,1.0
60,'1',20.441,2.869,9.352,-9.352,1.04,0,100.0,0.0,1.0,0.0,0.0,1.0,1,100.0,41.606,3.0,1,1.0,0,1.0,0,1.0,0,1.0,0,1.0
70,'1',20.32,-0.364,9.296,-9.296,1.04,0,100.0,0.0,1.0,0.0,0.0,1.0,1,100.0,41.36,5.32,1,1.0,0,1.0,0,1.0,0,1.0,0,1.0
73,'99',88.931,-12.029,550.0,-550.0,1.0,0,100.0,0.0,1.0,0.0,0.0,1.0,1,100.0,1500.0,40.769,1,1.0,0,1.0,0,1.0,0,1.0,0,1.0
75,'1',415.898,3.159,425.895,-425.895,1.04,0,1020.0,0.0033,0.243,0.0014,0.1257,1.0,1,100.0,2000.0,10.0,1,1.0,0,1.0,0,1.0,0,1.0,0,1.0
75,'2',707.246,5.372,426.656,-426.656,1.04,0,1020.0,0.0033,0.243,0.0014,0.1257,1.0,1,100.0,2000.0,10.0,1,1.0,0,1.0,0,1.0,0,1.0,0,1.0
78,'99',5.743,-22.813,550.0,-550.0,1.0085,0,100.0,0.0,1.0,0.0,0.0,1.0,1,100.0,1500.0,3.0,1,1.0,0,1.0,0,1.0,0,1.0,0,1.0
96,'99',13.459,-61.762,550.0,-550.0,1.0133,0,100.0,0.0,1.0,0.0,0.0,1.0,1,100.0,1500.0,6.17,1,1.0,0,1.0,0,1.0,0,1.0,0,1.0
112,'97',3.1,3.66,3.66,-3.66,1.01,0,100.0,0.0,0.1,0.0,0.0,1.0,1,100.0,40.0,3.0,1,1.0,0,1.0,0,1.0,0,1.0,0,1.0
116,'99',3.1,51.286,51.286,-51.286,1.0311,0,100.0,0.0,1.0,0.0,0.0,1.0,1,100.0,228.172,3.0,1,1.0,0,1.0,0,1.0,0,1.0,0,1.0
119,'1',0.0,0.0,284.382,-284.382,1.04,0,686.0,0.0,0.195,0.0,0.0,1.0,0,100.0,914.118,45.706,1,1.0,0,1.0,0,1.0,0,1.0,0,1.0
129,'1',420.95,37.279,281.019,-281.019,1.0239,0,686.0,0.0,0.195,0.0,0.0,1.0,1,100.0,1250.255,3.0,1,1.0,0,1.0,0,1.0,0,1.0,0,1.0
141,'99',272.679,-19.389,550.0,-550.0,1.0393,0,100.0,0.0,1.0,0.0,0.0,1.0,1,100.0,1500.0,75.0,1,1.0,0,1.0,0,1.0,0,1.0,0,1.0
147,'1',3.1,9.607,9.607,-9.607,1.0298,0,100.0,0.0,1.0,0.0,0.0,1.0,1,100.0,40.0,3.0,1,1.0,0,1.0,0,1.0,0,1.0,0,1.0
151,'1',0.0,0.0,120.323,-120.323,1.013,0,100.0,0.0,1.0,0.0,0.0,1.0,0,100.0,386.765,19.338,1,1.0,0,1.0,0,1.0,0,1.0,0,1.0
152,'1',75.0,2.445,135.878,-135.878,1.04,0,35.0,0.0,0.8,0.0,0.0,1.0,1,100.0,436.765,5.7,1,1.0,0,1.0,0,1.0,0,1.0,0,1.0
154,'1',3.1,-18.664,135.42,-135.42,1.01,0,100.0,0.0,1.0,0.0,0.0,1.0,1,100.0,512.111,3.0,1,1.0,0,1.0,0,1.0,0,1.0,0,1.0
160,'1',3.1,0.0,16.813,-16.813,1.0199,0,40.6,0.0,0.15,0.0002,0.0548,1.025,0,100.0,54.044,3.0,1,1.0,0,1.0,0,1.0,0,1.0,0,1.0
163,'1',0.0,0.0,32.357,-32.357,1.0249,0,60.67,0.0,0.15,0.0,0.0,1.01,0,100.0,104.007,9.5,1,1.0,0,1.0,0,1.0,0,1.0,0,1.0
178,'1',3.1,0.0,8.321,-8.321,1.04,0,52.5,0.0,0.8,0.0,0.0,1.0,0,100.0,26.746,3.0,1,1.0,0,1.0,0,1.0,0,1.0,0,1.0
179,'1',0.0,0.0,56.044,-56.044,1.0265,0,102.0,0.0,0.15,0.0,0.0,1.005,0,100.0,180.147,38.0,1,1.0,0,1.0,0,1.0,0,1.0,0,1.0
182,'1',0.0,0.0,10.426,-10.426,1.0235,0,38.65,0.0,0.8,0.0,0.0,1.0,0,100.0,33.515,7.79,1,1.0,0,1.0,0,1.0,0,1.0,0,1.0
192,'1',0.0,0.0,134.962,-134.962,1.0095,0,100.0,0.0,0.18599,0.0,0.0,1.0,0,100.0,433.824,21.691,1,1.0,0,1.0,0,1.0,0,1.0,0,1.0
196,'1',3.1,0.0,11.929,-11.929,1.0235,0,38.65,0.0,0.8,0.0,0.0,1.0,0,100.0,38.346,3.0,1,1.0,0,1.0,0,1.0,0,1.0,0,1.0
199,'1',0.0,0.0,14.745,-14.745,1.0298,0,126.32,0.0,0.8,0.0,0.0,1.0,0,100.0,47.397,19.66,1,1.0,0,1.0,0,1.0,0,1.0,0,1.0
199,'2',0.0,0.0,24.019,-24.019,1.0298,0,100.0,0.0,1.0,0.0,0.0,1.0,0,100.0,77.206,3.86,1,1.0,0,1.0,0,1.0,0,1.0,0,1.0
199,'3',3.1,0.0,9.607,-9.607,1.0298,0,100.0,0.0,1.0,0.0,0.0,1.0,0,100.0,30.882,3.0,1,1.0,0,1.0,0,1.0,0,1.0,0,1.0
211,'1',3.1,1.874,11.209,-11.209,1.0182,0,100.0,0.0,1.0,0.0,0.0,1.0,1,100.0,40.0,3.0,1,1.0,0,1.0,0,1.0,0,1.0,0,1.0
217,'1',0.0,0.0,297.832,-297.832,1.0,0,733.0,0.0,0.295,0.0,0.0,1.0,0,100.0,957.353,304.0,1,1.0,0,1.0,0,1.0,0,1.0,0,1.0
224,'1',0.0,0.0,431.367,-431.367,1.0116,0,650.0,0.0,0.225,0.0,0.0,1.0,0,100.0,1386.585,427.4,1,1.0,0,1.0,0,1.0,0,1.0,0,1.0
237,'1',0.0,0.0,10.34,-10.34,1.0303,0,100.0,0.0,1.0,0.0,0.0,1.0,0,100.0,33.235,7.6,1,1.0,0,1.0,0,1.0,0,1.0,0,1.0
243,'99',19.573,-22.161,550.0,-550.0,1.0124,0,100.0,0.0,1.0,0.0,0.0,1.0,1,100.0,1500.0,8.973,1,1.0,0,1.0,0,1.0,0,1.0,0,1.0
252,'1',0.0,0.0,69.06,-69.06,1.02,0,250.0,0.0,0.243,0.0,0.0,1.0,0,100.0,221.985,11.099,1,1.0,0,1.0,0,1.0,0,1.0,0,1.0
257,'1',0.0,0.0,24.979,-24.979,1.01,0,25.98,0.0,0.195,0.0,0.0,1.0,0,100.0,80.294,20.65,1,1.0,0,1.0,0,1.0,0,1.0,0,1.0
263,'1',0.0,0.0,21.617,-21.617,1.0207,0,43.45,0.0,0.165,0.0,0.0,1.0,0,100.0,81.747,4.087,1,1.0,0,1.0,0,1.0,0,1.0,0,1.0
267,'99',4.506,117.99,550.0,-550.0,1.0348,0,100.0,0.0,1.0,0.0,0.0,1.0,1,100.0,1500.0,3.0,1,1.0,0,1.0,0,1.0,0,1.0,0,1.0
269,'99',84.385,8.137,550.0,-550.0,1.0363,0,100.0,0.0,1.0,0.0,0.0,1.0,1,100.0,1500.0,38.686,1,1.0,0,1.0,0,1.0,0,1.0,0,1.0
274,'1',25.0,-18.735,18.735,-18.735,1.01,0,44.0,0.0,0.195,0.0,0.0,1.0,1,100.0,70.848,4.75,1,1.0,0,1.0,0,1.0,0,1.0,0,1.0
286,'99',390.944,-161.62,550.0,-550.0,1.02,0,100.0,0.0,1.0,0.0,0.0,1.0,1,100.0,1500.0,75.0,1,1.0,0,1.0,0,1.0,0,1.0,0,1.0
293,'1',58.5,26.764,26.764,-26.764,1.03,0,73.0,0.0,0.132,0.0,0.0,1.0,1,100.0,119.072,4.75,1,1.0,0,1.0,0,1.0,0,1.0,0,1.0
302,'1',0.0,0.0,120.323,-120.323,1.0238,0,6.25,0.0,0.15,0.0,0.0,1.025,0,100.0,386.765,5.142,1,1.0,0,1.0,0,1.0,0,1.0,0,1.0
305,'1',271.0,15.855,123.982,-123.982,1.0194,0,100.0,0.0,1.0,0.0,0.0,1.0,1,100.0,551.598,27.58,1,1.0,0,1.0,0,1.0,0,1.0,0,1.0
314,'1',0.0,0.0,307.92,-307.92,1.01,0,370.6,0.0,0.2489,0.0,0.0,1.0,0,100.0,989.779,251.2,1,1.0,0,1.0,0,1.0,0,1.0,0,1.0
322,'99',80.828,-4.634,550.0,-550.0,1.0,0,100.0,0.0,1.0,0.0,0.0,1.0,1,100.0,1500.0,37.055,1,1.0,0,1.0,0,1.0,0,1.0,0,1.0
332,'1',55.0,-19.559,48.037,-48.037,1.0229,0,100.0,0.0,1.0,0.0,0.0,1.0,1,100.0,181.661,4.5,1,1.0,0,1.0,0,1.0,0,1.0,0,1.0
333,'1',3.1,0.0,7.206,-7.206,1.03,0,100.0,0.0,1.0,0.0,0.0,1.0,0,100.0,23.162,3.0,1,1.0,0,1.0,0,1.0,0,1.0,0,1.0
336,'1',0.0,0.0,86.467,-86.467,1.0314,0,234.0,0.0,0.1796,0.0,0.0,1.0,0,100.0,326.99,94.05,1,1.0,0,1.0,0,1.0,0,1.0,0,1.0
339,'1',140.202,-81.509,117.578,-117.578,1.0017,0,100.0,0.0,1.0,0.0,0.0,1.0,1,100.0,523.102,1.95,1,1.0,0,1.0,0,1.0,0,1.0,0,1.0
350,'1',0.0,0.0,66.292,-66.292,1.04,0,43.45,0.0,0.165,0.0,0.0,1.0,0,100.0,213.088,25.933,1,1.0,0,1.0,0,1.0,0,1.0,0,1.0
351,'99',297.019,-135.311,550.0,-550.0,1.02,0,100.0,0.0,1.0,0.0,0.0,1.0,1,100.0,1500.0,75.0,1,1.0,0,1.0,0,1.0,0,1.0,0,1.0
352,'1',0.0,0.0,215.089,-215.089,1.01,0,100.0,0.0,1.0,0.0,0.0,1.0,0,100.0,691.382,34.569,1,1.0,0,1.0,0,1.0,0,1.0,0,1.0
353,'1',0.0,0.0,101.107,-101.107,1.0314,0,213.4,0.0,0.1796,0.0,0.0,1.0,0,100.0,325.0,94.05,1,1.0,0,1.0,0,1.0,0,1.0,0,1.0
356,'1',3.1,0.0,128.1,-128.1,1.0033,0,100.0,0.0,1.0,0.0,0.0,1.0,0,100.0,411.765,3.0,1,1.0,0,1.0,0,1.0,0,1.0,0,1.0
358,'2',190.0,-123.525,123.525,-123.525,1.0029,0,100.0,0.0,1.0,0.0,0.0,1.0,1,100.0,549.562,1.083,1,1.0,0,1.0,0,1.0,0,1.0,0,1.0
359,'1',0.0,0.0,243.07,-243.07,1.0245,0,595.0,0.0,0.225,0.0026,0.1541,1.0,0,100.0,781.324,124.8,1,1.0,0,1.0,0,1.0,0,1.0,0,1.0
368,'1',56.8,-7.001,25.986,-25.986,1.0184,0,71.18,0.0,0.144,0.0,0.0,1.0,1,100.0,115.612,5.781,1,1.0,0,1.0,0,1.0,0,1.0,0,1.0
371,'1',65.644,26.533,122.152,-122.152,1.0257,0,64.7,0.0,0.096,0.0,0.0,1.0,1,100.0,461.938,14.58,1,1.0,0,1.0,0,1.0,0,1.0,0,1.0
371,'2',0.0,0.0,118.95,-118.95,1.0257,0,64.7,0.0,0.096,0.0,0.0,1.0,0,100.0,382.353,19.118,1,1.0,0,1.0,0,1.0,0,1.0,0,1.0
371,'3',0.0,0.0,19.627,-19.627,1.0257,0,49.4,0.0,0.101,0.0,0.0,1.0,0,100.0,63.088,13.46,1,1.0,0,1.0,0,1.0,0,1.0,0,1.0
372,'1',0.0,0.0,86.467,-86.467,1.01,0,213.4,0.0,0.1796,0.0,0.0,1.0,0,100.0,277.941,13.897,1,1.0,0,1.0,0,1.0,0,1.0,0,1.0
375,'1',0.0,0.0,21.617,-21.617,1.03,0,43.45,0.0,0.165,0.0,0.0,1.0,0,100.0,69.485,4.75,1,1.0,0,1.0,0,1.0,0,1.0,0,1.0
379,'1',553.35,74.603,253.158,-253.158,1.01,0,382.6,0.0,0.193,0.0,0.0,1.0,1,100.0,1126.297,125.708,1,1.0,0,1.0,0,1.0,0,1.0,0,1.0
382,'1',0.0,0.0,86.467,-86.467,1.0314,0,234.0,0.0,0.1796,0.0,0.0,1.0,0,100.0,277.941,94.05,1,1.0,0,1.0,0,1.0,0,1.0,0,1.0
388,'99',62.396,1.361,550.0,-550.0,1.0347,0,100.0,0.0,1.0,0.0,0.0,1.0,1,100.0,1500.0,28.605,1,1.0,0,1.0,0,1.0,0,1.0,0,1.0
392,'1',255.0,-47.821,116.663,-116.663,1.01,0,100.0,0.0,1.0,0.0,0.0,1.0,1,100.0,519.031,2.025,1,1.0,0,1.0,0,1.0,0,1.0,0,1.0
398,'1',272.0,-7.778,124.44,-124.44,1.0348,0,19.0,0.0,0.181,0.0,0.0,1.045,1,100.0,553.633,3.0,1,1.0,0,1.0,0,1.0,0,1.0,0,1.0
401,'1',0.0,0.0,312.244,-312.244,1.0314,0,369.0,0.0,0.2489,0.0,0.0,1.0,0,100.0,1003.676,127.708,1,1.0,0,1.0,0,1.0,0,1.0,0,1.0
412,'99',56.49,-23.843,550.0,-550.0,1.0,0,100.0,0.0,1.0,0.0,0.0,1.0,1,100.0,1500.0,25.897,1,1.0,0,1.0,0,1.0,0,1.0,0,1.0
414,'99',40.473,46.533,550.0,-550.0,1.0277,0,100.0,0.0,1.0,0.0,0.0,1.0,1,100.0,1500.0,18.554,1,1.0,0,1.0,0,1.0,0,1.0,0,1.0
421,'1',3.1,-179.546,605.021,-605.021,1.0252,0,100.0,0.0,1.0,0.0,0.0,1.0,1,100.0,40.0,3.0,1,1.0,0,1.0,0,1.0,0,1.0,0,1.0
431,'99',3.1,94.923,550.0,-550.0,1.0431,0,100.0,0.0,1.0,0.0,0.0,1.0,1,100.0,1500.0,3.0,1,1.0,0,1.0,0,1.0,0,1.0,0,1.0
433,'99',3.696,47.693,550.0,-550.0,1.0389,0,100.0,0.0,1.0,0.0,0.0,1.0,1,100.0,1500.0,3.0,1,1.0,0,1.0,0,1.0,0,1.0,0,1.0
442,'99',20.423,82.841,550.0,-550.0,1.0361,0,100.0,0.0,1.0,0.0,0.0,1.0,1,100.0,1500.0,9.363,1,1.0,0,1.0,0,1.0,0,1.0,0,1.0
456,'99',266.427,266.218,550.0,-550.0,1.0461,0,100.0,0.0,1.0,0.0,0.0,1.0,1,100.0,1500.0,75.0,1,1.0,0,1.0,0,1.0,0,1.0,0,1.0
468,'1',62.145,16.071,28.431,-28.431,1.03,0,58.71,0.0,0.284,0.0,0.0,1.0,1,100.0,126.491,28.5,1,1.0,0,1.0,0,1.0,0,1.0,0,1.0
474,'1',0.0,0.0,133.133,-133.133,1.03,0,52.94,0.0,0.2,0.0,0.0,1.0,0,100.0,427.941,21.397,1,1.0,0,1.0,0,1.0,0,1.0,0,1.0
474,'2',0.0,0.0,19.215,-19.215,1.03,0,52.94,0.0,0.2,0.0,0.0,1.0,0,100.0,61.765,14.25,1,1.0,0,1.0,0,1.0,0,1.0,0,1.0
506,'1',0.0,0.0,119.408,-119.408,1.0,0,250.0,0.0,0.3,0.0,0.0,0.9706,0,100.0,383.824,19.191,1,1.0,0,1.0,0,1.0,0,1.0,0,1.0
510,'99',3.1,-72.887,550.0,-550.0,1.0272,0,100.0,0.0,1.0,0.0,0.0,1.0,1,100.0,1500.0,3.0,1,1.0,0,1.0,0,1.0,0,1.0,0,1.0
543,'99',284.3,3.688,550.0,-550.0,1.0191,0,100.0,0.0,1.0,0.0,0.0,1.0,1,100.0,1500.0,75.0,1,1.0,0,1.0,0,1.0,0,1.0,0,1.0
563,'1',0.0,0.0,384.3,-384.3,1.0146,0,100.0,0.0,1.0,0.0,0.0,1.0,0,100.0,1235.294,61.765,1,1.0,0,1.0,0,1.0,0,1.0,0,1.0
566,'1',3.1,-95.648,368.928,-368.928,1.0124,0,841.0,0.0,0.25,0.0,0.0,0.0,1,100.0,1395.156,3.0,1,1.0,0,1.0,0,1.0,0,1.0,0,1.0
569,'99',10.015,-13.168,550.0,-550.0,1.0293,0,100.0,0.0,1.0,0.0,0.0,1.0,1,100.0,1500.0,4.591,1,1.0,0,1.0,0,1.0,0,1.0,0,1.0
579,'1',254.1,-32.272,116.251,-116.251,1.0135,0,100.0,0.0,1.0,0.0,0.0,1.0,1,100.0,517.199,25.86,1,1.0,0,1.0,0,1.0,0,1.0,0,1.0
582,'1',3.1,-91.769,320.404,-320.404,1.0,0,659.0,0.0117,0.28,0.0,0.0,0.0,1,100.0,1425.478,3.0,1,1.0,0,1.0,0,1.0,0,1.0,0,1.0
584,'99',3.1,-24.181,24.181,-24.181,1.01,0,100.0,0.0,1.0,0.0,0.0,1.0,1,100.0,40.0,3.0,1,1.0,0,1.0,0,1.0,0,1.0,0,1.0
588,'1',0.0,0.0,22.578,-22.578,1.04,0,100.0,0.0,1.0,0.0,0.0,1.0,0,100.0,72.574,3.629,1,1.0,0,1.0,0,1.0,0,1.0,0,1.0
609,'99',3.1,28.61,550.0,-550.0,1.017,0,100.0,0.0,1.0,0.0,0.0,1.0,1,100.0,1500.0,3.0,1,1.0,0,1.0,0,1.0,0,1.0,0,1.0
614,'1',591.15,32.013,270.451,-270.451,1.03,0,100.0,0.0,1.0,0.0,0.0,1.0,1,100.0,1203.236,3.0,1,1.0,0,1.0,0,1.0,0,1.0,0,1.0
626,'1',0.0,0.0,319.141,-319.141,1.0,0,659.0,0.0117,0.28,0.0,0.0,0.0,0,100.0,1025.846,51.292,1,1.0,0,1.0,0,1.0,0,1.0,0,1.0
629,'1',0.0,0.0,174.857,-174.857,1.03,0,100.0,0.0,1.0,0.0,0.0,1.0,0,100.0,562.059,28.103,1,1.0,0,1.0,0,1.0,0,1.0,0,1.0
630,'1',0.0,0.0,29.303,-29.303,1.03,0,55.0,0.0,0.138,0.0,0.0,0.0,0,100.0,94.191,4.71,1,1.0,0,1.0,0,1.0,0,1.0,0,1.0
630,'2',0.0,0.0,26.421,-26.421,1.03,0,55.0,0.0,0.138,0.0,0.0,0.0,0,100.0,84.926,4.246,1,1.0,0,1.0,0,1.0,0,1.0,0,1.0
630,'3',57.75,-6.653,26.421,-26.421,1.03,0,55.0,0.0,0.138,0.0,0.0,0.0,1,100.0,117.545,3.375,1,1.0,0,1.0,0,1.0,0,1.0,0,1.0
630,'4',67.2,-7.741,30.744,-30.744,1.03,0,55.0,0.0,0.138,0.0,0.0,0.0,1,100.0,136.78,3.0,1,1.0,0,1.0,0,1.0,0,1.0,0,1.0
630,'5',0.0,0.0,25.94,-25.94,1.03,0,55.0,0.0,0.138,0.0,0.0,0.0,0,100.0,83.382,4.169,1,1.0,0,1.0,0,1.0,0,1.0,0,1.0
630,'6',0.0,0.0,25.94,-25.94,1.03,0,55.0,0.0,0.138,0.0,0.0,0.0,0,100.0,83.382,4.169,1,1.0,0,1.0,0,1.0,0,1.0,0,1.0
634,'2',3.1,0.0,7.206,-7.206,1.03,0,19.0,0.0,0.155,0.0,0.15,1.0,0,100.0,23.162,3.0,1,1.0,0,1.0,0,1.0,0,1.0,0,1.0
638,'1',642.6,-27.766,293.99,-293.99,1.0185,0,718.0,0.0,0.308,0.0,0.0,0.0,1,100.0,1307.958,65.398,1,1.0,0,1.0,0,1.0,0,1.0,0,1.0
652,'1',0.0,0.0,22.578,-22.578,1.003,0,55.6,0.0,0.16,0.0,0.0,0.0,0,100.0,72.574,3.629,1,1.0,0,1.0,0,1.0,0,1.0,0,1.0
652,'2',0.0,0.0,22.578,-22.578,1.003,0,55.6,0.0,0.16,0.0,0.0,0.0,0,100.0,72.574,3.629,1,1.0,0,1.0,0,1.0,0,1.0,0,1.0
652,'3',3.1,0.0,23.538,-23.538,1.003,0,55.6,0.0,0.16,0.0,0.0,0.0,0,100.0,75.662,3.0,1,1.0,0,1.0,0,1.0,0,1.0,0,1.0
652,'4',290.0,-86.884,132.675,-132.675,1.003,0,55.6,0.0,0.16,0.0,0.0,0.0,1,100.0,590.271,29.514,1,1.0,0,1.0,0,1.0,0,1.0,0,1.0
652,'5',0.0,0.0,134.048,-134.048,1.003,0,195.6,0.0,0.192,0.0,0.0,0.0,0,100.0,430.882,21.544,1,1.0,0,1.0,0,1.0,0,1.0,0,1.0
652,'6',3.1,0.0,9.887,-9.887,1.003,0,195.6,0.0,0.192,0.0,0.0,0.0,0,100.0,31.779,3.0,1,1.0,0,1.0,0,1.0,0,1.0,0,1.0
664,'99',25.312,-19.131,550.0,-550.0,1.0247,0,100.0,0.0,1.0,0.0,0.0,1.0,1,100.0,1500.0,11.604,1,1.0,0,1.0,0,1.0,0,1.0,0,1.0
669,'1',3.1,0.0,286.784,-286.784,1.0,0,704.0,0.0091,0.26,0.0,0.0,0.0,0,100.0,921.838,3.0,1,1.0,0,1.0,0,1.0,0,1.0,0,1.0
682,'97',3.1,-3.66,3.66,-3.66,1.01,0,100.0,0.0,0.1,0.0,0.0,1.0,1,100.0,40.0,3.0,1,1.0,0,1.0,0,1.0,0,1.0,0,1.0
686,'1',0.0,0.0,364.605,-364.605,1.0124,0,841.0,0.0,0.25,0.0,0.0,0.0,0,100.0,1171.985,58.599,1,1.0,0,1.0,0,1.0,0,1.0,0,1.0
696,'99',48.616,-142.557,550.0,-550.0,1.0119,0,100.0,0.0,1.0,0.0,0.0,1.0,1,100.0,1500.0,22.288,1,1.0,0,1.0,0,1.0,0,1.0,0,1.0
698,'97',3.1,-3.66,3.66,-3.66,1.01,0,100.0,0.0,0.1,0.0,0.0,1.0,1,100.0,40.0,3.0,1,1.0,0,1.0,0,1.0,0,1.0,0,1.0
702,'1',3.1,0.0,443.386,-443.386,1.0124,0,1043.0,0.0,0.23,0.0,0.0,0.0,0,100.0,1425.221,3.0,1,1.0,0,1.0,0,1.0,0,1.0,0,1.0
715,'1',0.0,0.0,129.015,-129.015,1.03,0,100.0,0.0,1.0,0.0,0.0,1.0,0,100.0,414.706,20.735,1,1.0,0,1.0,0,1.0,0,1.0,0,1.0
719,'1',3.1,0.0,30.744,-30.744,1.0186,0,47.62,0.0,0.258,0.0,0.175,1.0,0,100.0,98.824,3.0,1,1.0,0,1.0,0,1.0,0,1.0,0,1.0
722,'1',0.0,0.0,31.224,-31.224,1.015,0,100.0,0.0,1.0,0.0,0.0,1.0,0,100.0,100.368,5.018,1,1.0,0,1.0,0,1.0,0,1.0,0,1.0
728,'1',0.0,0.0,122.015,-122.015,1.0,0,194.91,0.0,0.225,0.0,0.0,1.0,0,100.0,392.206,19.61,1,1.0,0,1.0,0,1.0,0,1.0,0,1.0
730,'1',100.95,-12.571,110.967,-110.967,1.0,0,194.45,0.0,0.225,0.0,0.0,1.0,1,100.0,419.637,20.982,1,1.0,0,1.0,0,1.0,0,1.0,0,1.0
732,'1',195.7,14.009,111.218,-111.218,1.0,0,196.98,0.0,0.225,0.0,0.0,1.0,1,100.0,494.81,3.0,1,1.0,0,1.0,0,1.0,0,1.0,0,1.0
735,'1',0.0,0.0,30.264,-30.264,1.03,0,100.0,0.0,1.0,0.0,0.0,1.0,0,100.0,97.279,4.864,1,1.0,0,1.0,0,1.0,0,1.0,0,1.0
739,'1',3.1,0.0,12.009,-12.009,1.0162,0,100.0,0.0,1.0,0.0,0.0,1.0,0,100.0,38.603,3.0,1,1.0,0,1.0,0,1.0,0,1.0,0,1.0
742,'2',0.0,0.0,48.037,-48.037,1.0042,0,120.0,0.0,0.1187,0.0,0.0,1.0,0,100.0,154.412,2.85,1,1.0,0,1.0,0,1.0,0,1.0,0,1.0
748,'1',0.0,0.0,122.015,-122.015,1.0,0,195.49,0.0,0.225,0.0,0.0,1.0,0,100.0,392.206,19.61,1,1.0,0,1.0,0,1.0,0,1.0,0,1.0
765,'1',0.0,0.0,41.793,-41.793,1.03,0,100.0,0.0,1.0,0.0,0.0,1.0,0,100.0,134.338,6.717,1,1.0,0,1.0,0,1.0,0,1.0,0,1.0
770,'2',3.1,0.0,17.808,-17.808,1.0,0,100.0,0.0,1.0,0.0,0.0,1.0,0,100.0,57.243,3.0,1,1.0,0,1.0,0,1.0,0,1.0,0,1.0
770,'3',3.1,0.0,15.172,-15.172,1.0,0,100.0,0.0,1.0,0.0,0.0,1.0,0,100.0,48.768,3.0,1,1.0,0,1.0,0,1.0,0,1.0,0,1.0
774,'99',23.454,-60.025,550.0,-550.0,1.0184,0,100.0,0.0,1.0,0.0,0.0,1.0,1,100.0,1500.0,10.752,1,1.0,0,1.0,0,1.0,0,1.0,0,1.0
775,'1',3.1,0.0,111.384,-111.384,1.0,0,194.87,0.0,0.2436,0.0,0.0,1.0,0,100.0,358.033,3.0,1,1.0,0,1.0,0,1.0,0,1.0,0,1.0
783,'1',66.95,-13.798,111.052,-111.052,1.0,0,194.6,0.0,0.225,0.0,0.0,1.0,1,100.0,419.961,3.0,1,1.0,0,1.0,0,1.0,0,1.0,0,1.0
788,'99',3.1,-31.506,550.0,-550.0,1.0,0,100.0,0.0,1.0,0.0,0.0,1.0,1,100.0,1500.0,3.0,1,1.0,0,1.0,0,1.0,0,1.0,0,1.0
789,'99',3.1,-31.506,550.0,-550.0,1.0,0,100.0,0.0,1.0,0.0,0.0,1.0,1,100.0,1500.0,3.0,1,1.0,0,1.0,0,1.0,0,1.0,0,1.0
791,'1',242.738,-0.645,111.052,-111.052,1.0,0,194.3,0.0,0.225,0.0,0.0,1.0,1,100.0,494.072,3.0,1,1.0,0,1.0,0,1.0,0,1.0,0,1.0
792,'99',1098.659,184.171,550.0,-550.0,1.0025,0,100.0,0.0,1.0,0.0,0.0,1.0,1,100.0,1740.687,87.034,1,1.0,0,1.0,0,1.0,0,1.0,0,1.0
800,'1',0.0,0.0,31.224,-31.224,1.0025,0,100.0,0.0,1.0,0.0,0.0,1.0,0,100.0,100.368,5.018,1,1.0,0,1.0,0,1.0,0,1.0,0,1.0
801,'1',3.1,0.0,57.645,-57.645,1.0073,0,100.0,0.0,1.0,0.0,0.0,1.0,0,100.0,185.294,3.0,1,1.0,0,1.0,0,1.0,0,1.0,0,1.0
809,'99',96.56,-40.443,550.0,-550.0,1.0,0,100.0,0.0,1.0,0.0,0.0,1.0,1,100.0,1500.0,44.267,1,1.0,0,1.0,0,1.0,0,1.0,0,1.0
816,'1',0.0,0.0,127.643,-127.643,1.0054,0,128.0,0.0,0.17,0.0021,0.072,1.0,0,100.0,410.294,20.515,1,1.0,0,1.0,0,1.0,0,1.0,0,1.0
816,'2',69.6,-48.998,48.998,-48.998,1.0054,0,128.0,0.0,0.25,0.0021,0.072,1.0,1,100.0,217.993,3.8,1,1.0,0,1.0,0,1.0,0,1.0,0,1.0
816,'3',0.0,0.0,123.982,-123.982,1.0054,0,128.0,0.0,0.17,0.002,0.0725,1.0,0,100.0,398.529,19.926,1,1.0,0,1.0,0,1.0,0,1.0,0,1.0
816,'4',107.1,-48.998,48.998,-48.998,1.0054,0,128.0,0.0,0.25,0.002,0.0725,1.0,1,100.0,217.993,3.8,1,1.0,0,1.0,0,1.0,0,1.0,0,1.0
819,'1',0.0,0.0,638.226,-638.226,1.0263,0,100.0,0.0,1.0,0.0,0.0,1.0,0,100.0,2219.323,110.966,1,1.0,0,1.0,0,1.0,0,1.0,0,1.0
820,'1',75.0,-11.988,112.476,-112.476,1.0,0,196.78,0.0,0.225,0.0,0.0,1.0,1,100.0,361.544,3.0,1,1.0,0,1.0,0,1.0,0,1.0,0,1.0
821,'1',0.0,0.0,111.132,-111.132,1.0,0,196.83,0.0,0.225,0.0,0.0,1.0,0,100.0,357.224,17.861,1,1.0,0,1.0,0,1.0,0,1.0,0,1.0
825,'1',266.7,0.563,122.015,-122.015,1.0,0,195.2,0.0,0.225,0.0,0.0,1.0,1,100.0,542.846,3.0,1,1.0,0,1.0,0,1.0,0,1.0,0,1.0
829,'1',0.0,0.0,118.492,-118.492,1.03,0,100.0,0.0,1.0,0.0,0.0,1.0,0,100.0,380.882,8.1,1,1.0,0,1.0,0,1.0,0,1.0,0,1.0
836,'1',0.0,0.0,116.663,-116.663,1.0041,0,100.0,0.0,1.0,0.0,0.0,1.0,0,100.0,375.0,18.75,1,1.0,0,1.0,0,1.0,0,1.0,0,1.0
839,'1',3.1,0.0,15.315,-15.315,1.0,0,100.0,0.0,1.0,0.0,0.0,1.0,0,100.0,49.228,3.0,1,1.0,0,1.0,0,1.0,0,1.0,0,1.0
839,'3',3.1,0.0,15.338,-15.338,1.0,0,100.0,0.0,1.0,0.0,0.0,1.0,0,100.0,49.301,3.0,1,1.0,0,1.0,0,1.0,0,1.0,0,1.0
840,'1',25.95,-13.039,110.549,-110.549,1.0,0,193.42,0.0,0.2436,0.0,0.0,1.0,1,100.0,418.058,3.0,1,1.0,0,1.0,0,1.0,0,1.0,0,1.0
842,'1',106.05,-26.595,48.518,-48.518,1.03,0,100.0,0.0,1.0,0.0,0.0,1.0,1,100.0,215.856,3.0,1,1.0,0,1.0,0,1.0,0,1.0,0,1.0
850,'99',96.56,-40.443,550.0,-550.0,1.0,0,100.0,0.0,1.0,0.0,0.0,1.0,1,100.0,1500.0,44.267,1,1.0,0,1.0,0,1.0,0,1.0,0,1.0
859,'1',0.0,0.0,31.224,-31.224,1.0156,0,100.0,0.0,1.0,0.0,0.0,1.0,0,100.0,100.368,5.018,1,1.0,0,1.0,0,1.0,0,1.0,0,1.0
862,'1',3.1,-14.759,111.721,-111.721,1.0,0,195.77,0.0,0.26,0.0,0.0,1.0,1,100.0,497.049,3.0,1,1.0,0,1.0,0,1.0,0,1.0,0,1.0
863,'1',3.1,0.0,15.652,-15.652,1.0,0,100.0,0.0,1.0,0.0,0.0,1.0,0,100.0,50.312,3.0,1,1.0,0,1.0,0,1.0,0,1.0,0,1.0
864,'3',3.1,0.0,15.269,-15.269,1.0,0,100.0,0.0,1.0,0.0,0.0,1.0,0,100.0,49.081,3.0,1,1.0,0,1.0,0,1.0,0,1.0,0,1.0
869,'1',234.15,-58.118,107.124,-107.124,1.0141,0,100.0,0.0,1.0,0.0,0.0,1.0,1,100.0,476.593,7.6,1,1.0,0,1.0,0,1.0,0,1.0,0,1.0
873,'1',0.0,0.0,591.096,-591.096,1.01,0,716.2,0.0,0.215,0.0,0.0,1.0,0,100.0,1900.019,524.545,1,1.0,0,1.0,0,1.0,0,1.0,0,1.0
880,'1',0.0,0.0,133.59,-133.59,1.0,0,100.0,0.0,1.0,0.0,0.0,1.0,0,100.0,429.412,3.42,1,1.0,0,1.0,0,1.0,0,1.0,0,1.0
906,'1',0.0,0.0,305.038,-305.038,1.018,0,716.2,0.0,0.215,0.0,0.0,1.0,0,100.0,980.515,209.0,1,1.0,0,1.0,0,1.0,0,1.0,0,1.0
926,'99',696.889,149.689,550.0,-550.0,1.0378,0,100.0,0.0,1.0,0.0,0.0,1.0,1,100.0,1500.0,75.0,1,1.0,0,1.0,0,1.0,0,1.0,0,1.0
938,'1',0.0,0.0,14.411,-14.411,1.04,0,37.5,0.0,0.154,0.0,0.0,1.0,0,100.0,46.324,17.033,1,1.0,0,1.0,0,1.0,0,1.0,0,1.0
938,'2',0.0,0.0,14.411,-14.411,1.04,0,37.5,0.0,0.171,0.0,0.0,1.0,0,100.0,46.324,16.7,1,1.0,0,1.0,0,1.0,0,1.0,0,1.0
938,'6',0.0,0.0,14.411,-14.411,1.04,0,36.0,0.0,0.194,0.0,0.0,1.0,0,100.0,46.324,8.633,1,1.0,0,1.0,0,1.0,0,1.0,0,1.0
961,'99',67.414,-29.243,550.0,-550.0,1.0134,0,100.0,0.0,1.0,0.0,0.0,1.0,1,100.0,1500.0,32.275,1,1.0,0,1.0,0,1.0,0,1.0,0,1.0
965,'99',163.336,-86.842,550.0,-550.0,1.0217,0,100.0,0.0,1.0,0.0,0.0,1.0,1,100.0,1500.0,75.0,1,1.0,0,1.0,0,1.0,0,1.0,0,1.0
987,'1',51.975,-23.779,23.779,-23.779,1.01,0,60.0,0.0,0.17,0.0,0.0,1.0,1,100.0,105.791,6.65,1,1.0,0,1.0,0,1.0,0,1.0,0,1.0
992,'1',0.0,0.0,31.032,-31.032,1.0,0,64.1,0.0,0.31,0.0014,0.0937,1.0,0,100.0,99.75,4.988,1,1.0,0,1.0,0,1.0,0,1.0,0,1.0
992,'8',0.0,0.0,128.1,-128.1,1.0,0,1.5,0.0,0.233,0.0,0.0,1.0,0,100.0,411.765,20.588,1,1.0,0,1.0,0,1.0,0,1.0,0,1.0
992,'9',0.0,0.0,116.663,-116.663,1.0,0,100.0,0.0,1.0,0.0,0.0,1.0,0,100.0,375.0,18.75,1,1.0,0,1.0,0,1.0,0,1.0,0,1.0
992,'A',284.0,-65.382,129.93,-129.93,1.0,0,13.0,0.0,0.26,0.0003,0.02,1.0,1,100.0,578.058,1.9,1,1.0,0,1.0,0,1.0,0,1.0,0,1.0
996,'99',22.406,160.213,550.0,-550.0,1.013,0,100.0,0.0,1.0,0.0,0.0,1.0,1,100.0,1500.0,10.272,1,1.0,0,1.0,0,1.0,0,1.0,0,1.0
1007,'PS',0.0,0.0,0.091,-0.091,1.0,0,100.0,0.0,1.0,0.0,0.0,1.0,0,100.0,0.294,0.1,304,1.0,0,1.0,0,1.0,0,1.0,0,1.0
1048,'1',0.0,0.0,114.375,-114.375,1.0,0,100.0,0.0,1.0,0.0,0.0,1.0,0,100.0,367.647,1.267,1,1.0,0,1.0,0,1.0,0,1.0,0,1.0
1056,'1',178.5,-13.374,81.664,-81.664,1.0,0,246.0,0.0,0.222,0.0,0.0,1.0,1,100.0,363.322,57.0,1,1.0,0,1.0,0,1.0,0,1.0,0,1.0
1061,'99',73.876,-75.66,550.0,-550.0,1.0,0,100.0,0.0,1.0,0.0,0.0,1.0,1,100.0,1500.0,33.868,1,1.0,0,1.0,0,1.0,0,1.0,0,1.0
1065,'PS',0.0,0.0,0.091,-0.091,1.0,0,100.0,0.0,1.0,0.0,0.0,1.0,0,100.0,0.294,0.1,304,1.0,0,1.0,0,1.0,0,1.0,0,1.0
1077,'99',20.032,-226.611,550.0,-550.0,1.0043,0,100.0,0.0,1.0,0.0,0.0,1.0,1,100.0,1500.0,9.184,1,1.0,0,1.0,0,1.0,0,1.0,0,1.0
1086,'PS',0.0,0.0,0.091,-0.091,1.0,0,100.0,0.0,1.0,0.0,0.0,1.0,0,100.0,0.294,0.1,304,1.0,0,1.0,0,1.0,0,1.0,0,1.0
1092,'1',0.0,0.0,126.27,-126.27,1.02,0,225.0,0.0,0.202,0.0,0.0,1.0,0,100.0,405.882,3.6,1,1.0,0,1.0,0,1.0,0,1.0,0,1.0
1092,'2',0.0,0.0,59.534,-59.534,1.02,0,154.0,0.0,0.229,0.0,0.0,1.0,0,100.0,191.368,50.18,1,1.0,0,1.0,0,1.0,0,1.0,0,1.0
1139,'99',68.326,-37.883,550.0,-550.0,1.0,0,100.0,0.0,1.0,0.0,0.0,1.0,1,100.0,1500.0,31.324,1,1.0,0,1.0,0,1.0,0,1.0,0,1.0
1140,'99',34.764,-21.12,550.0,-550.0,1.0,0,100.0,0.0,1.0,0.0,0.0,1.0,1,100.0,1500.0,15.937,1,1.0,0,1.0,0,1.0,0,1.0,0,1.0
1142,'1',0.0,0.0,122.068,-122.068,1.01,0,100.0,0.0,1.0,0.0,0.0,1.0,0,100.0,392.376,19.619,1,1.0,0,1.0,0,1.0,0,1.0,0,1.0
1143,'1',266.816,37.972,122.068,-122.068,1.01,0,100.0,0.0,1.0,0.0,0.0,1.0,1,100.0,543.082,3.0,1,1.0,0,1.0,0,1.0,0,1.0,0,1.0
1144,'1',3.1,0.0,122.068,-122.068,1.01,0,100.0,0.0,1.0,0.0,0.0,1.0,0,100.0,392.376,3.0,1,1.0,0,1.0,0,1.0,0,1.0,0,1.0
1145,'1',266.808,37.881,122.065,-122.065,1.01,0,100.0,0.0,1.0,0.0,0.0,1.0,1,100.0,543.065,3.0,1,1.0,0,1.0,0,1.0,0,1.0,0,1.0
1146,'99',121.091,-17.425,550.0,-550.0,1.0,0,100.0,0.0,1.0,0.0,0.0,1.0,1,100.0,1500.0,55.513,1,1.0,0,1.0,0,1.0,0,1.0,0,1.0
1173,'1',15.031,-5.245,7.411,-7.411,1.0,0,100.0,0.0,1.0,0.0,0.0,1.0,1,100.0,32.974,3.0,1,1.0,0,1.0,0,1.0,0,1.0,0,1.0
1175,'1',3.1,0.0,11.58,-11.58,1.01,0,100.0,0.0,1.0,0.0,0.0,1.0,0,100.0,37.224,3.0,1,1.0,0,1.0,0,1.0,0,1.0,0,1.0
1181,'1',30.0,-5.024,13.725,-13.725,1.01,0,100.0,0.0,1.0,0.0,0.0,1.0,1,100.0,61.062,3.053,1,1.0,0,1.0,0,1.0,0,1.0,0,1.0
1183,'1',3.1,0.0,13.725,-13.725,1.01,0,100.0,0.0,1.0,0.0,0.0,1.0,0,100.0,44.118,3.0,1,1.0,0,1.0,0,1.0,0,1.0,0,1.0
1185,'1',0.0,0.0,21.445,-21.445,1.01,0,100.0,0.0,1.0,0.0,0.0,1.0,0,100.0,68.934,3.447,1,1.0,0,1.0,0,1.0,0,1.0,0,1.0
1187,'1',0.0,0.0,21.445,-21.445,1.01,0,100.0,0.0,1.0,0.0,0.0,1.0,0,100.0,68.934,3.447,1,1.0,0,1.0,0,1.0,0,1.0,0,1.0
...
0 / END OF GENERATOR DATA BEGIN BRANCH DATA
1,31,'1',0.0013,0.0099,0.02132,260.0,312.0,390.0,0.0,0.0,0.0,0.0,1,2,0.0,1,1.0,0,1.0,0,1.0,0,1.0
3,7,'1',0.07479,0.29968,0.0,260.0,312.0,390.0,0.0,0.0,0.0,0.0,1,1,0.0,1,1.0,0,1.0,0,1.0,0,1.0
3,10,'1',1.0352,0.9,0.0,260.0,312.0,390.0,0.0,0.0,0.0,0.0,1,2,0.0,1,1.0,0,1.0,0,1.0,0,1.0
3,28,'1',0.03978,0.26486,0.0,260.0,312.0,390.0,0.0,0.0,0.0,0.0,1,2,0.0,1,1.0,0,1.0,0,1.0,0,1.0
3,29,'1',1.0789,0.9,0.0,260.0,312.0,390.0,0.0,0.0,0.0,0.0,1,2,0.0,1,1.0,0,1.0,0,1.0,0,1.0
3,33,'1',0.13857,0.28969,0.0,260.0,312.0,390.0,0.0,0.0,0.0,0.0,1,1,0.0,1,1.0,0,1.0,0,1.0,0,1.0
3,44,'1',0.07496,0.30013,0.0,260.0,312.0,390.0,0.0,0.0,0.0,0.0,1,1,0.0,1,1.0,0,1.0,0,1.0,0,1.0
4,9,'1',0.39394,0.9,0.0,260.0,312.0,390.0,0.0,0.0,0.0,0.0,1,1,0.0,1,1.0,0,1.0,0,1.0,0,1.0
4,15,'1',0.0111,0.16469,0.0,260.0,312.0,390.0,0.0,0.0,0.0,0.0,1,1,0.0,1,1.0,0,1.0,0,1.0,0,1.0
4,33,'1',0.05555,0.36498,0.0,260.0,312.0,390.0,0.0,0.0,0.0,0.0,1,1,0.0,1,1.0,0,1.0,0,1.0,0,1.0
5,9,'1',0.29041,0.5542,0.0,260.0,312.0,390.0,0.0,0.0,0.0,0.0,1,1,0.0,1,1.0,0,1.0,0,1.0,0,1.0
5,47,'1',0.15248,0.33587,0.0,260.0,312.0,390.0,0.0,0.0,0.0,0.0,1,1,0.0,1,1.0,0,1.0,0,1.0,0,1.0
6,16,'1',0.0042,0.0253,0.0485,260.0,312.0,390.0,0.0,0.0,0.0,0.0,1,1,0.0,1,1.0,0,1.0,0,1.0,0,1.0
6,54,'1',0.0046,0.0315,0.059,420.23,504.27,630.34,0.0,0.0,0.0,0.0,1,2,0.0,1,1.0,0,1.0,0,1.0,0,1.0
7,28,'1',-0.0656,0.84873,0.0,260.0,312.0,390.0,0.0,0.0,0.0,0.0,1,2,0.0,1,1.0,0,1.0,0,1.0,0,1.0
7,33,'1',0.15749,0.77703,0.0,260.0,312.0,390.0,0.0,0.0,0.0,0.0,1,1,0.0,1,1.0,0,1.0,0,1.0,0,1.0
7,44,'1',0.0162,0.1815,0.0,260.0,312.0,390.0,0.0,0.0,0.0,0.0,1,1,0.0,1,1.0,0,1.0,0,1.0,0,1.0
8,10,'1',-0.0598,0.2664,0.0,260.0,312.0,390.0,0.0,0.0,0.0,0.0,1,2,0.0,1,1.0,0,1.0,0,1.0,0,1.0
8,29,'1',-0.0578,0.27321,0.0,260.0,312.0,390.0,0.0,0.0,0.0,0.0,1,2,0.0,1,1.0,0,1.0,0,1.0,0,1.0
8,34,'1',0.01979,0.0496,0.0,260.0,312.0,390.0,0.0,0.0,0.0,0.0,1,2,0.0,1,1.0,0,1.0,0,1.0,0,1.0
9,10,'1',0.46671,0.9,0.0,260.0,312.0,390.0,0.0,0.0,0.0,0.0,1,2,0.0,1,1.0,0,1.0,0,1.0,0,1.0
9,15,'1',0.39058,0.9,0.0,260.0,312.0,390.0,0.0,0.0,0.0,0.0,1,2,0.0,1,1.0,0,1.0,0,1.0,0,1.0
9,29,'1',0.50043,0.9,0.0,260.0,312.0,390.0,0.0,0.0,0.0,0.0,1,2,0.0,1,1.0,0,1.0,0,1.0,0,1.0
9,33,'1',0.98041,0.9,0.0,260.0,312.0,390.0,0.0,0.0,0.0,0.0,1,1,0.0,1,1.0,0,1.0,0,1.0,0,1.0
9,34,'1',0.54064,0.64634,0.0,260.0,312.0,390.0,0.0,0.0,0.0,0.0,1,2,0.0,1,1.0,0,1.0,0,1.0,0,1.0
9,47,'1',0.14495,0.27334,0.0,260.0,312.0,390.0,0.0,0.0,0.0,0.0,1,1,0.0,1,1.0,0,1.0,0,1.0,0,1.0
10,28,'1',0.48924,0.9,0.0,260.0,312.0,390.0,0.0,0.0,0.0,0.0,1,1,0.0,1,1.0,0,1.0,0,1.0,0,1.0
10,29,'1',0.0009,0.0003,0.0,260.0,312.0,390.0,0.0,0.0,0.0,0.0,1,2,0.0,1,1.0,0,1.0,0,1.0,0,1.0
10,33,'1',0.95414,0.9,0.0,260.0,312.0,390.0,0.0,0.0,0.0,0.0,1,1,0.0,1,1.0,0,1.0,0,1.0,0,1.0
10,34,'1',0.01526,0.02962,0.0,260.0,312.0,390.0,0.0,0.0,0.0,0.0,1,1,0.0,1,1.0,0,1.0,0,1.0,0,1.0
11,47,'1',0.16551,0.4737,0.0,260.0,312.0,390.0,0.0,0.0,0.0,0.0,1,1,0.0,1,1.0,0,1.0,0,1.0,0,1.0
11,49,'1',0.04304,0.18584,0.0,260.0,312.0,390.0,0.0,0.0,0.0,0.0,1,1,0.0,1,1.0,0,1.0,0,1.0,0,1.0
12,18,'1',0.0136,0.0903,0.1732,260.0,312.0,390.0,0.0,0.0,0.0,0.0,1,1,0.0,1,1.0,0,1.0,0,1.0,0,1.0
12,961,'TL',0.0001,0.01,0.0,122.07,146.49,183.11,0.0,0.0,0.0,0.0,1,1,0.0,8,1.0,0,1.0,0,1.0,0,1.0
13,22,'1',0.0154,0.0991,0.17817,591.0,709.2,886.5,0.0,0.0,0.0,0.0,1,1,0.0,1,1.0,0,1.0,0,1.0,0,1.0
13,31,'1',0.0122,0.0943,0.18743,260.0,312.0,390.0,0.0,0.0,0.0,0.0,1,2,0.0,1,1.0,0,1.0,0,1.0,0,1.0
13,39,'1',0.0065,0.0503,0.10008,260.0,312.0,390.0,0.0,0.0,0.0,0.0,1,1,0.0,1,1.0,0,1.0,0,1.0,0,1.0
13,40,'1',0.0022,0.0262,0.05566,712.6,855.12,1068.9,0.0,0.0,0.0,0.0,1,1,0.0,1,1.0,0,1.0,0,1.0,0,1.0
13,40,'2',0.0027,0.0268,0.05696,707.9,849.48,1061.85,0.0,0.0,0.0,0.0,1,1,0.0,1,1.0,0,1.0,0,1.0,0,1.0
15,33,'1',0.05509,0.36182,0.0,260.0,312.0,390.0,0.0,0.0,0.0,0.0,1,1,0.0,1,1.0,0,1.0,0,1.0,0,1.0
16,1077,'TL',0.0001,0.01,0.0,222.0,244.2,266.4,0.0,0.0,0.0,0.0,1,1,0.0,9,1.0,0,1.0,0,1.0,0,1.0
17,43,'1',0.0123,0.0822,0.15137,357.0,392.7,428.4,0.0,0.0,0.0,0.0,1,2,0.0,1,1.0,0,1.0,0,1.0,0,1.0
17,52,'1',0.0057,0.0382,0.07047,260.0,312.0,390.0,0.0,0.0,0.0,0.0,1,2,0.0,1,1.0,0,1.0,0,1.0,0,1.0
18,35,'1',0.00605,0.03642,0.06956,260.0,312.0,390.0,0.0,0.0,0.0,0.0,1,2,0.0,1,1.0,0,1.0,0,1.0,0,1.0
18,52,'1',0.00203,0.01191,0.02399,260.0,312.0,390.0,0.0,0.0,0.0,0.0,1,2,0.0,1,1.0,0,1.0,0,1.0,0,1.0
19,53,'1',0.00116,0.0314,2.6586,758.15,909.78,1137.22,0.0,0.0,0.0,0.0,1,2,0.0,1,1.0,0,1.0,0,1.0,0,1.0
22,45,'1',0.0106,0.0684,0.13505,260.0,312.0,390.0,0.0,0.0,0.0,0.0,1,2,0.0,1,1.0,0,1.0,0,1.0,0,1.0
22,48,'1',0.0112,0.0727,0.14343,260.0,312.0,390.0,0.0,0.0,0.0,0.0,1,1,0.0,1,1.0,0,1.0,0,1.0,0,1.0
22,50,'1',0.00197,0.01283,0.02477,260.0,312.0,390.0,0.0,0.0,0.0,0.0,1,2,0.0,1,1.0,0,1.0,0,1.0,0,1.0
23,632,'TL',0.0001,0.01,0.0,505.0,555.5,606.0,0.0,0.0,0.0,0.0,1,2,0.0,84,1.0,0,1.0,0,1.0,0,1.0
24,36,'1',0.0045,0.0221,0.00642,260.0,312.0,390.0,0.0,0.0,0.0,0.0,1,1,0.0,1,1.0,0,1.0,0,1.0,0,1.0
26,45,'1',0.0034,0.0221,0.04362,260.0,312.0,390.0,0.0,0.0,0.0,0.0,1,2,0.0,1,1.0,0,1.0,0,1.0,0,1.0
27,49,'1',0.04064,0.1642,0.0,260.0,312.0,390.0,0.0,0.0,0.0,0.0,1,1,0.0,1,1.0,0,1.0,0,1.0,0,1.0
27,666,'TL',0.0001,0.01,0.0,154.56,185.47,231.84,0.0,0.0,0.0,0.0,1,2,0.0,82,1.0,0,1.0,0,1.0,0,1.0
28,29,'1',0.523,0.9,0.0,260.0,312.0,390.0,0.0,0.0,0.0,0.0,1,2,0.0,1,1.0,0,1.0,0,1.0,0,1.0
28,33,'1',0.03257,0.26394,0.0,260.0,312.0,390.0,0.0,0.0,0.0,0.0,1,1,0.0,1,1.0,0,1.0,0,1.0,0,1.0
28,44,'1',-0.0656,0.85005,0.0,260.0,312.0,390.0,0.0,0.0,0.0,0.0,1,1,0.0,1,1.0,0,1.0,0,1.0,0,1.0
29,34,'1',0.01598,0.03011,0.0,260.0,312.0,390.0,0.0,0.0,0.0,0.0,1,1,0.0,1,1.0,0,1.0,0,1.0,0,1.0
30,32,'1',0.01265,0.06079,0.0289,260.0,312.0,390.0,0.0,0.0,0.0,0.0,1,1,0.0,1,1.0,0,1.0,0,1.0,0,1.0
30,41,'1',0.0239,0.1186,0.06562,260.0,312.0,390.0,0.0,0.0,0.0,0.0,1,1,0.0,1,1.0,0,1.0,0,1.0,0,1.0
31,43,'1',0.0001,0.001,0.00208,260.0,312.0,390.0,0.0,0.0,0.0,0.0,1,1,0.0,1,1.0,0,1.0,0,1.0,0,1.0
32,609,'TL',0.0001,0.01,0.0,193.83,232.59,290.74,0.0,0.0,0.0,0.0,1,1,0.0,81,1.0,0,1.0,0,1.0,0,1.0
33,44,'1',0.15786,0.7782,0.0,260.0,312.0,390.0,0.0,0.0,0.0,0.0,1,2,0.0,1,1.0,0,1.0,0,1.0,0,1.0
35,42,'1',0.00421,0.0253,0.04874,260.0,312.0,390.0,0.0,0.0,0.0,0.0,1,2,0.0,1,1.0,0,1.0,0,1.0,0,1.0
37,38,'1',0.0044,0.034,0.06751,260.0,312.0,390.0,0.0,0.0,0.0,0.0,1,1,0.0,1,1.0,0,1.0,0,1.0,0,1.0
37,39,'1',0.0049,0.0375,0.07449,429.88,515.85,644.82,0.0,0.0,0.0,0.0,1,2,0.0,1,1.0,0,1.0,0,1.0,0,1.0
38,40,'1',0.0048,0.0569,0.12161,260.0,312.0,390.0,0.0,0.0,0.0,0.0,1,2,0.0,1,1.0,0,1.0,0,1.0,0,1.0
39,43,'1',0.0091,0.0698,0.13869,453.0,498.3,543.6,0.0,0.0,0.0,0.0,1,2,0.0,1,1.0,0,1.0,0,1.0,0,1.0
42,975,'TL',0.0001,0.01,0.0,137.0,150.7,164.4,0.0,0.0,0.0,0.0,1,2,0.0,10,1.0,0,1.0,0,1.0,0,1.0
46,678,'TL',0.0001,0.01,0.0,172.0,189.2,206.4,0.0,0.0,0.0,0.0,1,2,0.0,83,1.0,0,1.0,0,1.0,0,1.0
50,54,'1',0.01244,0.081,0.1561,260.0,312.0,390.0,0.0,0.0,0.0,0.0,1,2,0.0,1,1.0,0,1.0,0,1.0,0,1.0
51,204,'TL',0.0001,0.01,0.0,83.7,98.6,125.55,0.0,0.0,0.0,0.0,1,2,0.0,3,1.0,0,1.0,0,1.0,0,1.0
56,58,'1',0.00033,0.00185,0.00134,154.0,182.0,182.0,0.0,0.0,0.0,0.0,1,2,0.0,1,1.0,0,1.0,0,1.0,0,1.0
56,63,'1',0.00351,0.01972,0.0013,154.0,182.0,182.0,0.0,0.0,0.0,0.0,1,1,0.0,1,1.0,0,1.0,0,1.0,0,1.0
58,67,'1',0.00251,0.00782,0.0022,154.0,182.0,182.0,0.0,0.0,0.0,0.0,1,1,0.0,1,1.0,0,1.0,0,1.0,0,1.0
59,62,'1',0.004,0.0117,0.0013,139.0,163.0,163.0,0.0,0.0,0.0,0.0,1,2,0.0,1,1.0,0,1.0,0,1.0,0,1.0
59,225,'TL',0.0001,0.01,0.0,83.7,98.6,125.55,0.0,0.0,0.0,0.0,1,1,0.0,1,1.0,0,1.0,0,1.0,0,1.0
62,64,'1',0.0046,0.01505,0.00188,83.0,83.0,83.0,0.0,0.0,0.0,0.0,1,2,0.0,1,1.0,0,1.0,0,1.0,0,1.0
62,69,'1',0.0252,0.0825,0.0103,142.0,167.0,167.0,0.0,0.0,0.0,0.0,1,1,0.0,1,1.0,0,1.0,0,1.0,0,1.0
66,67,'1',0.0087,0.02647,0.00222,144.0,169.0,169.0,0.0,0.0,0.0,0.0,1,2,0.0,1,1.0,0,1.0,0,1.0,0,1.0
66,69,'1',0.0262,0.0857,0.0107,142.0,176.0,176.0,0.0,0.0,0.0,0.0,1,2,0.0,1,1.0,0,1.0,0,1.0,0,1.0
66,241,'TL',0.0001,0.01,0.0,83.7,98.6,125.55,0.0,0.0,0.0,0.0,1,2,0.0,2,1.0,0,1.0,0,1.0,0,1.0
72,95,'1',0.0016,0.0179,0.29195,749.15,898.98,1123.72,0.0,0.0,0.0,0.0,1,2,0.0,1,1.0,0,1.0,0,1.0,0,1.0
72,127,'1',0.0011,0.0122,0.2654,654.13,784.95,981.19,0.0,0.0,0.0,0.0,1,2,0.0,1,1.0,0,1.0,0,1.0,0,1.0
74,103,'1',0.0024,0.0113,0.00294,260.0,312.0,390.0,0.0,0.0,0.0,0.0,1,2,0.0,1,1.0,0,1.0,0,1.0,0,1.0
74,103,'2',-0.0148,0.50095,0.0,260.0,312.0,390.0,0.0,0.0,0.0,0.0,1,2,0.0,1,1.0,0,1.0,0,1.0,0,1.0
74,133,'1',0.0189,0.0877,0.02284,260.0,312.0,390.0,0.0,0.0,0.0,0.0,1,2,0.0,1,1.0,0,1.0,0,1.0,0,1.0
74,146,'1',0.018,0.1264,0.04014,260.0,312.0,390.0,0.0,0.0,0.0,0.0,1,2,0.0,1,1.0,0,1.0,0,1.0,0,1.0
75,87,'1',0.0018,0.0232,0.4064,685.32,822.38,1027.98,0.0,0.0,0.0,0.0,1,1,0.0,1,1.0,0,1.0,0,1.0,0,1.0
75,143,'1',0.0013,0.0192,0.335,2010.0,2211.0,2412.0,0.0,0.0,0.0,0.0,1,2,0.0,1,1.0,0,1.0,0,1.0,0,1.0
76,88,'1',0.0014,0.0157,0.29997,260.0,312.0,390.0,0.0,0.0,0.0,0.0,1,2,0.0,1,1.0,0,1.0,0,1.0,0,1.0
77,98,'1',0.0201,0.0815,0.02096,260.0,312.0,390.0,0.0,0.0,0.0,0.0,1,2,0.0,1,1.0,0,1.0,0,1.0,0,1.0
77,122,'1',0.0035,0.0178,0.0,260.0,312.0,390.0,0.0,0.0,0.0,0.0,1,1,0.0,1,1.0,0,1.0,0,1.0,0,1.0
77,122,'2',0.0229,0.41771,0.0,260.0,312.0,390.0,0.0,0.0,0.0,0.0,1,1,0.0,1,1.0,0,1.0,0,1.0,0,1.0
78,128,'1',0.01346,0.05014,0.0125,260.0,312.0,390.0,0.0,0.0,0.0,0.0,1,1,0.0,1,1.0,0,1.0,0,1.0,0,1.0
78,2440,'TL',0.0001,0.01,0.0,228.0,250.8,273.6,0.0,0.0,0.0,0.0,1,2,0.0,78,1.0,0,1.0,0,1.0,0,1.0
79,124,'1',0.0001,0.001,0.0,260.0,312.0,390.0,0.0,0.0,0.0,0.0,1,2,0.0,1,1.0,0,1.0,0,1.0,0,1.0
81,85,'1',0.031,0.1441,0.0334,260.0,312.0,390.0,0.0,0.0,0.0,0.0,1,1,0.0,1,1.0,0,1.0,0,1.0,0,1.0
81,103,'1',0.0085,0.0394,0.01026,260.0,312.0,390.0,0.0,0.0,0.0,0.0,1,1,0.0,1,1.0,0,1.0,0,1.0,0,1.0
81,147,'1',0.0404,0.1952,0.04559,260.0,312.0,390.0,0.0,0.0,0.0,0.0,1,1,0.0,1,1.0,0,1.0,0,1.0,0,1.0
83,104,'1',0.00065,0.00725,0.138,565.76,678.91,848.64,0.0,0.0,0.0,0.0,1,1,0.0,1,1.0,0,1.0,0,1.0,0,1.0
83,108,'1',0.00065,0.00725,0.138,574.22,689.07,861.33,0.0,0.0,0.0,0.0,1,1,0.0,1,1.0,0,1.0,0,1.0,0,1.0
84,93,'1',0.00224,0.02578,0.26437,1046.0,1466.0,1466.0,0.0,0.0,0.0,0.0,1,1,0.0,1,1.0,0,1.0,0,1.0,0,1.0
84,142,'1',0.00067,0.00772,0.07922,1046.0,1466.0,1466.0,0.0,0.0,0.0,0.0,1,1,0.0,1,1.0,0,1.0,0,1.0,0,1.0
85,90,'1',0.0131,0.0609,0.01586,260.0,312.0,390.0,0.0,0.0,0.0,0.0,1,1,0.0,1,1.0,0,1.0,0,1.0,0,1.0
85,94,'1',0.0056,0.0418,0.01167,260.0,312.0,390.0,0.0,0.0,0.0,0.0,1,2,0.0,1,1.0,0,1.0,0,1.0,0,1.0
85,150,'1',0.0131,0.0609,0.01586,260.0,312.0,390.0,0.0,0.0,0.0,0.0,1,1,0.0,1,1.0,0,1.0,0,1.0,0,1.0
86,94,'1',0.0052,0.0393,0.01144,260.0,312.0,390.0,0.0,0.0,0.0,0.0,1,2,0.0,1,1.0,0,1.0,0,1.0,0,1.0
86,148,'1',0.0027,0.0198,0.0063,260.0,312.0,390.0,0.0,0.0,0.0,0.0,1,2,0.0,1,1.0,0,1.0,0,1.0,0,1.0
88,89,'1',0.0024,0.026,0.43493,260.0,312.0,390.0,0.0,0.0,0.0,0.0,1,2,0.0,1,1.0,0,1.0,0,1.0,0,1.0
88,143,'1',0.0016,0.0182,0.3036,566.0,622.6,679.2,0.0,0.0,0.0,0.0,1,1,0.0,1,1.0,0,1.0,0,1.0,0,1.0
91,139,'1',0.0043,0.0196,0.0051,260.0,312.0,390.0,0.0,0.0,0.0,0.0,1,1,0.0,1,1.0,0,1.0,0,1.0,0,1.0
91,150,'1',0.01,0.0462,0.01204,260.0,312.0,390.0,0.0,0.0,0.0,0.0,1,2,0.0,1,1.0,0,1.0,0,1.0,0,1.0
92,110,'1',0.0001,0.001,0.0,260.0,312.0,390.0,0.0,0.0,0.0,0.0,1,2,0.0,1,1.0,0,1.0,0,1.0,0,1.0
92,133,'1',0.006,0.0478,0.01272,260.0,312.0,390.0,0.0,0.0,0.0,0.0,1,2,0.0,1,1.0,0,1.0,0,1.0,0,1.0
92,2634,'TL',0.0001,0.01,0.0,83.7,98.6,125.55,0.0,0.0,0.0,0.0,1,1,0.0,76,1.0,0,1.0,0,1.0,0,1.0
93,113,'1',0.00258,0.029,0.2982,1046.0,1361.0,1361.0,0.0,0.0,0.0,0.0,1,2,0.0,1,1.0,0,1.0,0,1.0,0,1.0
93,127,'1',0.0007,0.0074,0.07651,1568.0,1760.0,1760.0,0.0,0.0,0.0,0.0,1,1,0.0,1,1.0,0,1.0,0,1.0,0,1.0
95,137,'1',0.0009,0.01,0.19176,964.64,1157.56,1446.96,0.0,0.0,0.0,0.0,1,2,0.0,1,1.0,0,1.0,0,1.0,0,1.0
96,134,'1',0.0063,0.0477,0.01332,260.0,312.0,390.0,0.0,0.0,0.0,0.0,1,2,0.0,1,1.0,0,1.0,0,1.0,0,1.0
...